MODEL 1
REMARK minimizedAffinity -8.37409687
REMARK minimizedRMSD -1
REMARK SMILES COc1cc(F)c(F)c(Nc2ccc(I)cc2F)c1NS(=O)(=O)C1(C[C@H](O)CO)CC1
REMARK SMILES IDX 21 1 22 2 23 3 20 4 19 6 3 7 4 8 5 9 9 10 7 11 6 12 8 13
REMARK SMILES IDX 2 14 1 15 10 16 11 18 12 19 17 20 13 21 16 22 14 23 18 24
REMARK SMILES IDX 15 25 24 26 30 27 31 28 25 29 26 30 27 31 28 33 29 34
REMARK H PARENT 20 5 10 17 27 32 29 35
ROOT
ATOM      1  S   UNL     1      -8.950  55.197  33.090  1.00  0.00     0.238 S 
ATOM      2  O   UNL     1      -8.806  56.241  32.094  1.00  0.00    -0.206 OA
ATOM      3  O   UNL     1     -10.031  54.239  32.968  1.00  0.00    -0.206 OA
ENDROOT
BRANCH   1   4
ATOM      4  N   UNL     1      -7.494  54.311  33.177  1.00  0.00    -0.277 N 
ATOM      5  H   UNL     1      -7.562  53.710  34.018  1.00  0.00     0.180 HD
BRANCH   4   6
ATOM      6  C   UNL     1      -7.231  53.517  32.001  1.00  0.00     0.117 A 
ATOM      7  C   UNL     1      -7.628  52.166  31.951  1.00  0.00     0.148 A 
ATOM      8  C   UNL     1      -7.282  51.379  30.850  1.00  0.00     0.091 A 
ATOM      9  C   UNL     1      -6.523  51.936  29.825  1.00  0.00     0.164 A 
ATOM     10  C   UNL     1      -6.472  54.080  30.956  1.00  0.00     0.106 A 
ATOM     11  C   UNL     1      -6.120  53.266  29.873  1.00  0.00     0.184 A 
ATOM     12  F   UNL     1      -6.195  51.176  28.769  1.00  0.00    -0.204 F 
ATOM     13  F   UNL     1      -5.392  53.776  28.868  1.00  0.00    -0.201 F 
BRANCH   7  14
ATOM     14  O   UNL     1      -8.430  51.701  32.964  1.00  0.00    -0.494 OA
ATOM     15  C   UNL     1      -9.543  50.923  32.526  1.00  0.00     0.278 C 
ENDBRANCH   7  14
BRANCH  10  16
ATOM     16  N   UNL     1      -6.071  55.442  31.024  1.00  0.00    -0.349 N 
ATOM     17  H   UNL     1      -6.890  56.030  31.200  1.00  0.00     0.167 HD
BRANCH  16  18
ATOM     18  C   UNL     1      -4.990  55.921  31.813  1.00  0.00     0.075 A 
ATOM     19  C   UNL     1      -3.738  55.296  31.820  1.00  0.00     0.030 A 
ATOM     20  C   UNL     1      -5.121  57.140  32.499  1.00  0.00     0.147 A 
ATOM     21  C   UNL     1      -2.670  55.846  32.543  1.00  0.00     0.017 A 
ATOM     22  C   UNL     1      -4.070  57.695  33.224  1.00  0.00     0.056 A 
ATOM     23  C   UNL     1      -2.842  57.040  33.243  1.00  0.00     0.016 A 
ATOM     24  F   UNL     1      -6.296  57.788  32.469  1.00  0.00    -0.205 F 
ATOM     25  I   UNL     1      -1.253  57.855  34.305  1.00  0.00    -0.044 I 
ENDBRANCH  16  18
ENDBRANCH  10  16
ENDBRANCH   4   6
ENDBRANCH   1   4
BRANCH   1  26
ATOM     26  C   UNL     1      -9.148  56.025  34.717  1.00  0.00     0.094 C 
ATOM     27  C   UNL     1      -9.357  57.529  34.611  1.00  0.00     0.027 C 
ATOM     28  C   UNL     1      -8.039  56.993  35.082  1.00  0.00     0.027 C 
BRANCH  26  29
ATOM     29  C   UNL     1      -9.949  55.242  35.719  1.00  0.00     0.059 C 
BRANCH  29  30
ATOM     30  C   UNL     1      -9.285  54.000  36.341  1.00  0.00     0.141 C 
BRANCH  30  31
ATOM     31  O   UNL     1      -9.695  52.826  35.622  1.00  0.00    -0.391 OA
ATOM     32  H   UNL     1      -9.058  52.120  35.841  1.00  0.00     0.211 HD
ENDBRANCH  30  31
BRANCH  30  33
ATOM     33  C   UNL     1      -9.535  53.762  37.832  1.00  0.00     0.187 C 
BRANCH  33  34
ATOM     34  O   UNL     1     -10.149  52.488  38.035  1.00  0.00    -0.394 OA
ATOM     35  H   UNL     1      -9.663  51.870  37.450  1.00  0.00     0.210 HD
ENDBRANCH  33  34
ENDBRANCH  30  33
ENDBRANCH  29  30
ENDBRANCH  26  29
ENDBRANCH   1  26
TORSDOF 11
ENDMDL
MODEL 2
REMARK minimizedAffinity -8.10783768
REMARK minimizedRMSD -1
REMARK SMILES COc1cc(F)c(F)c(Nc2ccc(I)cc2F)c1NS(=O)(=O)C1(C[C@H](O)CO)CC1
REMARK SMILES IDX 21 1 22 2 23 3 20 4 19 6 3 7 4 8 5 9 9 10 7 11 6 12 8 13
REMARK SMILES IDX 2 14 1 15 10 16 11 18 12 19 17 20 13 21 16 22 14 23 18 24
REMARK SMILES IDX 15 25 24 26 30 27 31 28 25 29 26 30 27 31 28 33 29 34
REMARK H PARENT 20 5 10 17 27 32 29 35
ROOT
ATOM      1  S   UNL     1      -7.535  52.420  31.077  1.00  0.00     0.238 S 
ATOM      2  O   UNL     1      -7.747  50.990  30.975  1.00  0.00    -0.206 OA
ATOM      3  O   UNL     1      -8.673  53.316  31.023  1.00  0.00    -0.206 OA
ENDROOT
BRANCH   1   4
ATOM      4  N   UNL     1      -6.695  52.753  32.524  1.00  0.00    -0.277 N 
ATOM      5  H   UNL     1      -5.761  53.109  32.250  1.00  0.00     0.180 HD
BRANCH   4   6
ATOM      6  C   UNL     1      -7.372  53.699  33.379  1.00  0.00     0.117 A 
ATOM      7  C   UNL     1      -8.465  53.289  34.167  1.00  0.00     0.148 A 
ATOM      8  C   UNL     1      -9.175  54.231  34.916  1.00  0.00     0.091 A 
ATOM      9  C   UNL     1      -8.807  55.571  34.851  1.00  0.00     0.164 A 
ATOM     10  C   UNL     1      -6.995  55.055  33.325  1.00  0.00     0.106 A 
ATOM     11  C   UNL     1      -7.735  55.983  34.067  1.00  0.00     0.184 A 
ATOM     12  F   UNL     1      -9.492  56.472  35.573  1.00  0.00    -0.204 F 
ATOM     13  F   UNL     1      -7.402  57.283  34.027  1.00  0.00    -0.201 F 
BRANCH   7  14
ATOM     14  O   UNL     1      -8.731  51.944  34.237  1.00  0.00    -0.494 OA
ATOM     15  C   UNL     1     -10.022  51.571  33.757  1.00  0.00     0.278 C 
ENDBRANCH   7  14
BRANCH  10  16
ATOM     16  N   UNL     1      -5.896  55.455  32.518  1.00  0.00    -0.349 N 
ATOM     17  H   UNL     1      -6.191  56.206  31.887  1.00  0.00     0.167 HD
BRANCH  16  18
ATOM     18  C   UNL     1      -4.604  55.769  33.021  1.00  0.00     0.075 A 
ATOM     19  C   UNL     1      -3.705  54.778  33.435  1.00  0.00     0.030 A 
ATOM     20  C   UNL     1      -4.145  57.095  32.974  1.00  0.00     0.147 A 
ATOM     21  C   UNL     1      -2.408  55.118  33.845  1.00  0.00     0.017 A 
ATOM     22  C   UNL     1      -2.861  57.447  33.381  1.00  0.00     0.056 A 
ATOM     23  C   UNL     1      -1.994  56.451  33.819  1.00  0.00     0.016 A 
ATOM     24  F   UNL     1      -4.969  58.060  32.535  1.00  0.00    -0.205 F 
ATOM     25  I   UNL     1      -0.068  56.946  34.418  1.00  0.00    -0.044 I 
ENDBRANCH  16  18
ENDBRANCH  10  16
ENDBRANCH   4   6
ENDBRANCH   1   4
BRANCH   1  26
ATOM     26  C   UNL     1      -6.411  52.899  29.706  1.00  0.00     0.094 C 
ATOM     27  C   UNL     1      -5.420  51.808  29.324  1.00  0.00     0.027 C 
ATOM     28  C   UNL     1      -4.947  53.009  30.087  1.00  0.00     0.027 C 
BRANCH  26  29
ATOM     29  C   UNL     1      -7.064  53.708  28.621  1.00  0.00     0.059 C 
BRANCH  29  30
ATOM     30  C   UNL     1      -8.298  53.100  27.930  1.00  0.00     0.141 C 
BRANCH  30  31
ATOM     31  O   UNL     1      -7.916  52.561  26.654  1.00  0.00    -0.391 OA
ATOM     32  H   UNL     1      -8.624  51.948  26.380  1.00  0.00     0.211 HD
ENDBRANCH  30  31
BRANCH  30  33
ATOM     33  C   UNL     1      -9.495  54.029  27.719  1.00  0.00     0.187 C 
BRANCH  33  34
ATOM     34  O   UNL     1     -10.467  53.829  28.748  1.00  0.00    -0.394 OA
ATOM     35  H   UNL     1      -9.954  53.767  29.581  1.00  0.00     0.210 HD
ENDBRANCH  33  34
ENDBRANCH  30  33
ENDBRANCH  29  30
ENDBRANCH  26  29
ENDBRANCH   1  26
TORSDOF 11
ENDMDL
MODEL 3
REMARK minimizedAffinity -8.00727749
REMARK minimizedRMSD -1
REMARK SMILES COc1cc(F)c(F)c(Nc2ccc(I)cc2F)c1NS(=O)(=O)C1(C[C@H](O)CO)CC1
REMARK SMILES IDX 21 1 22 2 23 3 20 4 19 6 3 7 4 8 5 9 9 10 7 11 6 12 8 13
REMARK SMILES IDX 2 14 1 15 10 16 11 18 12 19 17 20 13 21 16 22 14 23 18 24
REMARK SMILES IDX 15 25 24 26 30 27 31 28 25 29 26 30 27 31 28 33 29 34
REMARK H PARENT 20 5 10 17 27 32 29 35
ROOT
ATOM      1  S   UNL     1      -7.603  53.941  30.731  1.00  0.00     0.238 S 
ATOM      2  O   UNL     1      -8.842  54.692  30.790  1.00  0.00    -0.206 OA
ATOM      3  O   UNL     1      -6.533  54.398  29.866  1.00  0.00    -0.206 OA
ENDROOT
BRANCH   1   4
ATOM      4  N   UNL     1      -6.962  53.807  32.306  1.00  0.00    -0.277 N 
ATOM      5  H   UNL     1      -5.930  53.816  32.208  1.00  0.00     0.180 HD
BRANCH   4   6
ATOM      6  C   UNL     1      -7.400  54.854  33.198  1.00  0.00     0.117 A 
ATOM      7  C   UNL     1      -8.496  54.644  34.059  1.00  0.00     0.148 A 
ATOM      8  C   UNL     1      -8.973  55.693  34.846  1.00  0.00     0.091 A 
ATOM      9  C   UNL     1      -8.376  56.946  34.749  1.00  0.00     0.164 A 
ATOM     10  C   UNL     1      -6.790  56.121  33.110  1.00  0.00     0.106 A 
ATOM     11  C   UNL     1      -7.300  57.163  33.894  1.00  0.00     0.184 A 
ATOM     12  F   UNL     1      -8.838  57.951  35.509  1.00  0.00    -0.204 F 
ATOM     13  F   UNL     1      -6.742  58.381  33.825  1.00  0.00    -0.201 F 
BRANCH   7  14
ATOM     14  O   UNL     1      -8.994  53.368  34.153  1.00  0.00    -0.494 OA
ATOM     15  C   UNL     1     -10.333  53.220  33.683  1.00  0.00     0.278 C 
ENDBRANCH   7  14
BRANCH  10  16
ATOM     16  N   UNL     1      -5.692  56.322  32.231  1.00  0.00    -0.349 N 
ATOM     17  H   UNL     1      -5.882  57.125  31.626  1.00  0.00     0.167 HD
BRANCH  16  18
ATOM     18  C   UNL     1      -4.333  56.378  32.645  1.00  0.00     0.075 A 
ATOM     19  C   UNL     1      -3.803  57.488  33.315  1.00  0.00     0.030 A 
ATOM     20  C   UNL     1      -3.521  55.239  32.516  1.00  0.00     0.147 A 
ATOM     21  C   UNL     1      -2.482  57.474  33.785  1.00  0.00     0.017 A 
ATOM     22  C   UNL     1      -2.207  55.212  32.974  1.00  0.00     0.056 A 
ATOM     23  C   UNL     1      -1.690  56.338  33.609  1.00  0.00     0.016 A 
ATOM     24  F   UNL     1      -4.019  54.142  31.922  1.00  0.00    -0.205 F 
ATOM     25  I   UNL     1       0.263  56.321  34.315  1.00  0.00    -0.044 I 
ENDBRANCH  16  18
ENDBRANCH  10  16
ENDBRANCH   4   6
ENDBRANCH   1   4
BRANCH   1  26
ATOM     26  C   UNL     1      -8.029  52.235  30.200  1.00  0.00     0.094 C 
ATOM     27  C   UNL     1      -8.157  51.254  31.357  1.00  0.00     0.027 C 
ATOM     28  C   UNL     1      -6.956  51.197  30.461  1.00  0.00     0.027 C 
BRANCH  26  29
ATOM     29  C   UNL     1      -9.014  52.166  29.067  1.00  0.00     0.059 C 
BRANCH  29  30
ATOM     30  C   UNL     1      -8.514  52.568  27.669  1.00  0.00     0.141 C 
BRANCH  30  31
ATOM     31  O   UNL     1      -7.081  52.467  27.624  1.00  0.00    -0.391 OA
ATOM     32  H   UNL     1      -6.826  52.444  26.683  1.00  0.00     0.211 HD
ENDBRANCH  30  31
BRANCH  30  33
ATOM     33  C   UNL     1      -8.912  53.958  27.170  1.00  0.00     0.187 C 
BRANCH  33  34
ATOM     34  O   UNL     1      -9.898  54.532  28.031  1.00  0.00    -0.394 OA
ATOM     35  H   UNL     1      -9.591  54.337  28.941  1.00  0.00     0.210 HD
ENDBRANCH  33  34
ENDBRANCH  30  33
ENDBRANCH  29  30
ENDBRANCH  26  29
ENDBRANCH   1  26
TORSDOF 11
ENDMDL
MODEL 4
REMARK minimizedAffinity -7.95388842
REMARK minimizedRMSD -1
REMARK SMILES COc1cc(F)c(F)c(Nc2ccc(I)cc2F)c1NS(=O)(=O)C1(C[C@H](O)CO)CC1
REMARK SMILES IDX 21 1 22 2 23 3 20 4 19 6 3 7 4 8 5 9 9 10 7 11 6 12 8 13
REMARK SMILES IDX 2 14 1 15 10 16 11 18 12 19 17 20 13 21 16 22 14 23 18 24
REMARK SMILES IDX 15 25 24 26 30 27 31 28 25 29 26 30 27 31 28 33 29 34
REMARK H PARENT 20 5 10 17 27 32 29 35
ROOT
ATOM      1  S   UNL     1      -8.930  54.694  33.050  1.00  0.00     0.238 S 
ATOM      2  O   UNL     1      -8.901  55.002  31.634  1.00  0.00    -0.206 OA
ATOM      3  O   UNL     1     -10.045  53.944  33.595  1.00  0.00    -0.206 OA
ENDROOT
BRANCH   1   4
ATOM      4  N   UNL     1      -7.503  53.854  33.463  1.00  0.00    -0.277 N 
ATOM      5  H   UNL     1      -7.785  53.082  34.094  1.00  0.00     0.180 HD
BRANCH   4   6
ATOM      6  C   UNL     1      -6.785  53.343  32.319  1.00  0.00     0.117 A 
ATOM      7  C   UNL     1      -7.063  52.055  31.821  1.00  0.00     0.148 A 
ATOM      8  C   UNL     1      -6.296  51.531  30.778  1.00  0.00     0.091 A 
ATOM      9  C   UNL     1      -5.244  52.281  30.262  1.00  0.00     0.164 A 
ATOM     10  C   UNL     1      -5.725  54.104  31.787  1.00  0.00     0.106 A 
ATOM     11  C   UNL     1      -4.957  53.549  30.756  1.00  0.00     0.184 A 
ATOM     12  F   UNL     1      -4.511  51.773  29.260  1.00  0.00    -0.204 F 
ATOM     13  F   UNL     1      -3.938  54.249  30.236  1.00  0.00    -0.201 F 
BRANCH   7  14
ATOM     14  O   UNL     1      -8.156  51.399  32.331  1.00  0.00    -0.494 OA
ATOM     15  C   UNL     1      -9.121  51.011  31.355  1.00  0.00     0.278 C 
ENDBRANCH   7  14
BRANCH  10  16
ATOM     16  N   UNL     1      -5.449  55.398  32.305  1.00  0.00    -0.349 N 
ATOM     17  H   UNL     1      -6.216  55.690  32.919  1.00  0.00     0.167 HD
BRANCH  16  18
ATOM     18  C   UNL     1      -4.218  55.775  32.907  1.00  0.00     0.075 A 
ATOM     19  C   UNL     1      -3.282  54.830  33.345  1.00  0.00     0.030 A 
ATOM     20  C   UNL     1      -3.850  57.130  32.942  1.00  0.00     0.147 A 
ATOM     21  C   UNL     1      -2.041  55.237  33.855  1.00  0.00     0.017 A 
ATOM     22  C   UNL     1      -2.623  57.549  33.449  1.00  0.00     0.056 A 
ATOM     23  C   UNL     1      -1.720  56.594  33.908  1.00  0.00     0.016 A 
ATOM     24  F   UNL     1      -4.708  58.055  32.484  1.00  0.00    -0.205 F 
ATOM     25  I   UNL     1       0.124  57.192  34.656  1.00  0.00    -0.044 I 
ENDBRANCH  16  18
ENDBRANCH  10  16
ENDBRANCH   4   6
ENDBRANCH   1   4
BRANCH   1  26
ATOM     26  C   UNL     1      -8.866  56.292  33.953  1.00  0.00     0.094 C 
ATOM     27  C   UNL     1      -8.670  56.134  35.454  1.00  0.00     0.027 C 
ATOM     28  C   UNL     1     -10.013  56.529  34.917  1.00  0.00     0.027 C 
BRANCH  26  29
ATOM     29  C   UNL     1      -8.133  57.385  33.229  1.00  0.00     0.059 C 
BRANCH  29  30
ATOM     30  C   UNL     1      -8.980  58.478  32.552  1.00  0.00     0.141 C 
BRANCH  30  31
ATOM     31  O   UNL     1      -9.511  57.975  31.315  1.00  0.00    -0.391 OA
ATOM     32  H   UNL     1     -10.251  58.561  31.064  1.00  0.00     0.211 HD
ENDBRANCH  30  31
BRANCH  30  33
ATOM     33  C   UNL     1      -8.282  59.810  32.268  1.00  0.00     0.187 C 
BRANCH  33  34
ATOM     34  O   UNL     1      -7.285  59.645  31.258  1.00  0.00    -0.394 OA
ATOM     35  H   UNL     1      -7.702  59.081  30.573  1.00  0.00     0.210 HD
ENDBRANCH  33  34
ENDBRANCH  30  33
ENDBRANCH  29  30
ENDBRANCH  26  29
ENDBRANCH   1  26
TORSDOF 11
ENDMDL
MODEL 5
REMARK minimizedAffinity -7.92472744
REMARK minimizedRMSD -1
REMARK SMILES COc1cc(F)c(F)c(Nc2ccc(I)cc2F)c1NS(=O)(=O)C1(C[C@H](O)CO)CC1
REMARK SMILES IDX 21 1 22 2 23 3 20 4 19 6 3 7 4 8 5 9 9 10 7 11 6 12 8 13
REMARK SMILES IDX 2 14 1 15 10 16 11 18 12 19 17 20 13 21 16 22 14 23 18 24
REMARK SMILES IDX 15 25 24 26 30 27 31 28 25 29 26 30 27 31 28 33 29 34
REMARK H PARENT 20 5 10 17 27 32 29 35
ROOT
ATOM      1  S   UNL     1      -7.709  53.059  33.234  1.00  0.00     0.238 S 
ATOM      2  O   UNL     1      -8.297  51.774  33.557  1.00  0.00    -0.206 OA
ATOM      3  O   UNL     1      -6.316  53.305  33.548  1.00  0.00    -0.206 OA
ENDROOT
BRANCH   1   4
ATOM      4  N   UNL     1      -7.914  53.357  31.567  1.00  0.00    -0.277 N 
ATOM      5  H   UNL     1      -7.976  54.385  31.454  1.00  0.00     0.180 HD
BRANCH   4   6
ATOM      6  C   UNL     1      -6.853  52.817  30.750  1.00  0.00     0.117 A 
ATOM      7  C   UNL     1      -6.861  51.458  30.378  1.00  0.00     0.148 A 
ATOM      8  C   UNL     1      -5.782  50.923  29.672  1.00  0.00     0.091 A 
ATOM      9  C   UNL     1      -4.695  51.736  29.368  1.00  0.00     0.164 A 
ATOM     10  C   UNL     1      -5.755  53.641  30.430  1.00  0.00     0.106 A 
ATOM     11  C   UNL     1      -4.676  53.076  29.740  1.00  0.00     0.184 A 
ATOM     12  F   UNL     1      -3.661  51.217  28.688  1.00  0.00    -0.204 F 
ATOM     13  F   UNL     1      -3.614  53.837  29.429  1.00  0.00    -0.201 F 
BRANCH   7  14
ATOM     14  O   UNL     1      -7.994  50.732  30.652  1.00  0.00    -0.494 OA
ATOM     15  C   UNL     1      -8.818  50.472  29.517  1.00  0.00     0.278 C 
ENDBRANCH   7  14
BRANCH  10  16
ATOM     16  N   UNL     1      -5.755  55.007  30.819  1.00  0.00    -0.349 N 
ATOM     17  H   UNL     1      -6.708  55.291  31.067  1.00  0.00     0.167 HD
BRANCH  16  18
ATOM     18  C   UNL     1      -4.855  55.573  31.763  1.00  0.00     0.075 A 
ATOM     19  C   UNL     1      -3.717  54.890  32.210  1.00  0.00     0.030 A 
ATOM     20  C   UNL     1      -5.016  56.911  32.159  1.00  0.00     0.147 A 
ATOM     21  C   UNL     1      -2.805  55.511  33.074  1.00  0.00     0.017 A 
ATOM     22  C   UNL     1      -4.121  57.539  33.020  1.00  0.00     0.056 A 
ATOM     23  C   UNL     1      -3.014  56.831  33.478  1.00  0.00     0.016 A 
ATOM     24  F   UNL     1      -6.072  57.607  31.707  1.00  0.00    -0.205 F 
ATOM     25  I   UNL     1      -1.654  57.750  34.751  1.00  0.00    -0.044 I 
ENDBRANCH  16  18
ENDBRANCH  10  16
ENDBRANCH   4   6
ENDBRANCH   1   4
BRANCH   1  26
ATOM     26  C   UNL     1      -8.691  54.339  34.111  1.00  0.00     0.094 C 
ATOM     27  C   UNL     1      -9.061  53.951  35.535  1.00  0.00     0.027 C 
ATOM     28  C   UNL     1     -10.108  53.930  34.462  1.00  0.00     0.027 C 
BRANCH  26  29
ATOM     29  C   UNL     1      -8.267  55.752  33.823  1.00  0.00     0.059 C 
BRANCH  29  30
ATOM     30  C   UNL     1      -9.095  56.544  32.795  1.00  0.00     0.141 C 
BRANCH  30  31
ATOM     31  O   UNL     1      -8.694  56.172  31.466  1.00  0.00    -0.391 OA
ATOM     32  H   UNL     1      -9.406  56.457  30.863  1.00  0.00     0.211 HD
ENDBRANCH  30  31
BRANCH  30  33
ATOM     33  C   UNL     1      -9.045  58.070  32.901  1.00  0.00     0.187 C 
BRANCH  33  34
ATOM     34  O   UNL     1      -9.062  58.660  31.600  1.00  0.00    -0.394 OA
ATOM     35  H   UNL     1      -9.741  58.162  31.099  1.00  0.00     0.210 HD
ENDBRANCH  33  34
ENDBRANCH  30  33
ENDBRANCH  29  30
ENDBRANCH  26  29
ENDBRANCH   1  26
TORSDOF 11
ENDMDL
MODEL 6
REMARK minimizedAffinity -7.90287209
REMARK minimizedRMSD -1
REMARK SMILES COc1cc(F)c(F)c(Nc2ccc(I)cc2F)c1NS(=O)(=O)C1(C[C@H](O)CO)CC1
REMARK SMILES IDX 21 1 22 2 23 3 20 4 19 6 3 7 4 8 5 9 9 10 7 11 6 12 8 13
REMARK SMILES IDX 2 14 1 15 10 16 11 18 12 19 17 20 13 21 16 22 14 23 18 24
REMARK SMILES IDX 15 25 24 26 30 27 31 28 25 29 26 30 27 31 28 33 29 34
REMARK H PARENT 20 5 10 17 27 32 29 35
ROOT
ATOM      1  S   UNL     1      -8.159  53.889  33.263  1.00  0.00     0.238 S 
ATOM      2  O   UNL     1      -6.985  53.125  33.636  1.00  0.00    -0.206 OA
ATOM      3  O   UNL     1      -8.880  54.631  34.279  1.00  0.00    -0.206 OA
ENDROOT
BRANCH   1   4
ATOM      4  N   UNL     1      -7.734  54.993  32.034  1.00  0.00    -0.277 N 
ATOM      5  H   UNL     1      -8.304  55.844  32.189  1.00  0.00     0.180 HD
BRANCH   4   6
ATOM      6  C   UNL     1      -6.327  55.317  32.012  1.00  0.00     0.117 A 
ATOM      7  C   UNL     1      -5.454  54.641  31.137  1.00  0.00     0.148 A 
ATOM      8  C   UNL     1      -4.081  54.892  31.192  1.00  0.00     0.091 A 
ATOM      9  C   UNL     1      -3.589  55.789  32.134  1.00  0.00     0.164 A 
ATOM     10  C   UNL     1      -5.826  56.234  32.958  1.00  0.00     0.106 A 
ATOM     11  C   UNL     1      -4.444  56.452  33.008  1.00  0.00     0.184 A 
ATOM     12  F   UNL     1      -2.270  56.027  32.182  1.00  0.00    -0.204 F 
ATOM     13  F   UNL     1      -3.940  57.315  33.904  1.00  0.00    -0.201 F 
BRANCH   7  14
ATOM     14  O   UNL     1      -6.014  53.821  30.189  1.00  0.00    -0.494 OA
ATOM     15  C   UNL     1      -5.732  52.434  30.368  1.00  0.00     0.278 C 
ENDBRANCH   7  14
BRANCH  10  16
ATOM     16  N   UNL     1      -6.717  56.901  33.842  1.00  0.00    -0.349 N 
ATOM     17  H   UNL     1      -6.356  56.841  34.799  1.00  0.00     0.167 HD
BRANCH  16  18
ATOM     18  C   UNL     1      -7.223  58.212  33.630  1.00  0.00     0.075 A 
ATOM     19  C   UNL     1      -7.186  58.832  32.375  1.00  0.00     0.030 A 
ATOM     20  C   UNL     1      -7.916  58.863  34.665  1.00  0.00     0.147 A 
ATOM     21  C   UNL     1      -7.773  60.091  32.184  1.00  0.00     0.017 A 
ATOM     22  C   UNL     1      -8.500  60.114  34.490  1.00  0.00     0.056 A 
ATOM     23  C   UNL     1      -8.424  60.727  33.243  1.00  0.00     0.016 A 
ATOM     24  F   UNL     1      -8.011  58.270  35.866  1.00  0.00    -0.205 F 
ATOM     25  I   UNL     1      -9.299  62.588  32.950  1.00  0.00    -0.044 I 
ENDBRANCH  16  18
ENDBRANCH  10  16
ENDBRANCH   4   6
ENDBRANCH   1   4
BRANCH   1  26
ATOM     26  C   UNL     1      -9.353  52.714  32.510  1.00  0.00     0.094 C 
ATOM     27  C   UNL     1     -10.163  51.932  33.534  1.00  0.00     0.027 C 
ATOM     28  C   UNL     1      -9.065  51.249  32.777  1.00  0.00     0.027 C 
BRANCH  26  29
ATOM     29  C   UNL     1     -10.035  53.229  31.274  1.00  0.00     0.059 C 
BRANCH  29  30
ATOM     30  C   UNL     1      -9.464  52.786  29.915  1.00  0.00     0.141 C 
BRANCH  30  31
ATOM     31  O   UNL     1      -8.856  53.910  29.259  1.00  0.00    -0.391 OA
ATOM     32  H   UNL     1      -8.270  53.554  28.565  1.00  0.00     0.211 HD
ENDBRANCH  30  31
BRANCH  30  33
ATOM     33  C   UNL     1     -10.445  52.134  28.937  1.00  0.00     0.187 C 
BRANCH  33  34
ATOM     34  O   UNL     1     -11.308  53.120  28.367  1.00  0.00    -0.394 OA
ATOM     35  H   UNL     1     -10.725  53.876  28.144  1.00  0.00     0.210 HD
ENDBRANCH  33  34
ENDBRANCH  30  33
ENDBRANCH  29  30
ENDBRANCH  26  29
ENDBRANCH   1  26
TORSDOF 11
ENDMDL
MODEL 7
REMARK minimizedAffinity -7.81996727
REMARK minimizedRMSD -1
REMARK SMILES COc1cc(F)c(F)c(Nc2ccc(I)cc2F)c1NS(=O)(=O)C1(C[C@H](O)CO)CC1
REMARK SMILES IDX 21 1 22 2 23 3 20 4 19 6 3 7 4 8 5 9 9 10 7 11 6 12 8 13
REMARK SMILES IDX 2 14 1 15 10 16 11 18 12 19 17 20 13 21 16 22 14 23 18 24
REMARK SMILES IDX 15 25 24 26 30 27 31 28 25 29 26 30 27 31 28 33 29 34
REMARK H PARENT 20 5 10 17 27 32 29 35
ROOT
ATOM      1  S   UNL     1      -8.236  53.839  31.548  1.00  0.00     0.238 S 
ATOM      2  O   UNL     1      -9.553  53.334  31.885  1.00  0.00    -0.206 OA
ATOM      3  O   UNL     1      -8.080  54.723  30.410  1.00  0.00    -0.206 OA
ENDROOT
BRANCH   1   4
ATOM      4  N   UNL     1      -7.587  54.640  32.907  1.00  0.00    -0.277 N 
ATOM      5  H   UNL     1      -6.571  54.745  32.733  1.00  0.00     0.180 HD
BRANCH   4   6
ATOM      6  C   UNL     1      -8.196  55.924  33.165  1.00  0.00     0.117 A 
ATOM      7  C   UNL     1      -9.338  56.018  33.985  1.00  0.00     0.148 A 
ATOM      8  C   UNL     1      -9.977  57.249  34.149  1.00  0.00     0.091 A 
ATOM      9  C   UNL     1      -9.493  58.364  33.474  1.00  0.00     0.164 A 
ATOM     10  C   UNL     1      -7.702  57.058  32.491  1.00  0.00     0.106 A 
ATOM     11  C   UNL     1      -8.372  58.276  32.655  1.00  0.00     0.184 A 
ATOM     12  F   UNL     1     -10.110  59.545  33.636  1.00  0.00    -0.204 F 
ATOM     13  F   UNL     1      -7.926  59.371  32.019  1.00  0.00    -0.201 F 
BRANCH   7  14
ATOM     14  O   UNL     1      -9.722  54.893  34.672  1.00  0.00    -0.494 OA
ATOM     15  C   UNL     1      -9.408  54.915  36.064  1.00  0.00     0.278 C 
ENDBRANCH   7  14
BRANCH  10  16
ATOM     16  N   UNL     1      -6.555  56.947  31.660  1.00  0.00    -0.349 N 
ATOM     17  H   UNL     1      -6.529  57.737  31.008  1.00  0.00     0.167 HD
BRANCH  16  18
ATOM     18  C   UNL     1      -5.238  56.709  32.137  1.00  0.00     0.075 A 
ATOM     19  C   UNL     1      -4.721  57.369  33.259  1.00  0.00     0.030 A 
ATOM     20  C   UNL     1      -4.468  55.681  31.567  1.00  0.00     0.147 A 
ATOM     21  C   UNL     1      -3.449  57.047  33.754  1.00  0.00     0.017 A 
ATOM     22  C   UNL     1      -3.203  55.353  32.045  1.00  0.00     0.056 A 
ATOM     23  C   UNL     1      -2.696  56.044  33.142  1.00  0.00     0.016 A 
ATOM     24  F   UNL     1      -4.959  54.997  30.521  1.00  0.00    -0.205 F 
ATOM     25  I   UNL     1      -0.816  55.565  33.886  1.00  0.00    -0.044 I 
ENDBRANCH  16  18
ENDBRANCH  10  16
ENDBRANCH   4   6
ENDBRANCH   1   4
BRANCH   1  26
ATOM     26  C   UNL     1      -7.160  52.381  31.247  1.00  0.00     0.094 C 
ATOM     27  C   UNL     1      -7.103  51.415  32.421  1.00  0.00     0.027 C 
ATOM     28  C   UNL     1      -5.929  52.301  32.128  1.00  0.00     0.027 C 
BRANCH  26  29
ATOM     29  C   UNL     1      -7.235  51.833  29.849  1.00  0.00     0.059 C 
BRANCH  29  30
ATOM     30  C   UNL     1      -6.072  52.165  28.896  1.00  0.00     0.141 C 
BRANCH  30  31
ATOM     31  O   UNL     1      -6.582  52.363  27.568  1.00  0.00    -0.391 OA
ATOM     32  H   UNL     1      -5.894  52.840  27.066  1.00  0.00     0.211 HD
ENDBRANCH  30  31
BRANCH  30  33
ATOM     33  C   UNL     1      -4.931  51.147  28.825  1.00  0.00     0.187 C 
BRANCH  33  34
ATOM     34  O   UNL     1      -4.865  50.564  27.522  1.00  0.00    -0.394 OA
ATOM     35  H   UNL     1      -4.981  51.312  26.898  1.00  0.00     0.210 HD
ENDBRANCH  33  34
ENDBRANCH  30  33
ENDBRANCH  29  30
ENDBRANCH  26  29
ENDBRANCH   1  26
TORSDOF 11
ENDMDL
MODEL 8
REMARK minimizedAffinity -7.80284166
REMARK minimizedRMSD -1
REMARK SMILES COc1cc(F)c(F)c(Nc2ccc(I)cc2F)c1NS(=O)(=O)C1(C[C@H](O)CO)CC1
REMARK SMILES IDX 21 1 22 2 23 3 20 4 19 6 3 7 4 8 5 9 9 10 7 11 6 12 8 13
REMARK SMILES IDX 2 14 1 15 10 16 11 18 12 19 17 20 13 21 16 22 14 23 18 24
REMARK SMILES IDX 15 25 24 26 30 27 31 28 25 29 26 30 27 31 28 33 29 34
REMARK H PARENT 20 5 10 17 27 32 29 35
ROOT
ATOM      1  S   UNL     1      -8.029  53.798  33.111  1.00  0.00     0.238 S 
ATOM      2  O   UNL     1      -8.301  54.152  34.490  1.00  0.00    -0.206 OA
ATOM      3  O   UNL     1      -7.930  54.843  32.111  1.00  0.00    -0.206 OA
ENDROOT
BRANCH   1   4
ATOM      4  N   UNL     1      -6.582  52.895  33.047  1.00  0.00    -0.277 N 
ATOM      5  H   UNL     1      -6.853  51.896  33.079  1.00  0.00     0.180 HD
BRANCH   4   6
ATOM      6  C   UNL     1      -5.782  53.170  31.877  1.00  0.00     0.117 A 
ATOM      7  C   UNL     1      -5.771  52.269  30.794  1.00  0.00     0.148 A 
ATOM      8  C   UNL     1      -4.919  52.494  29.710  1.00  0.00     0.091 A 
ATOM      9  C   UNL     1      -4.070  53.595  29.727  1.00  0.00     0.164 A 
ATOM     10  C   UNL     1      -4.928  54.291  31.886  1.00  0.00     0.106 A 
ATOM     11  C   UNL     1      -4.069  54.484  30.797  1.00  0.00     0.184 A 
ATOM     12  F   UNL     1      -3.255  53.807  28.683  1.00  0.00    -0.204 F 
ATOM     13  F   UNL     1      -3.240  55.539  30.783  1.00  0.00    -0.201 F 
BRANCH   7  14
ATOM     14  O   UNL     1      -6.681  51.241  30.814  1.00  0.00    -0.494 OA
ATOM     15  C   UNL     1      -6.768  50.506  29.594  1.00  0.00     0.278 C 
ENDBRANCH   7  14
BRANCH  10  16
ATOM     16  N   UNL     1      -4.943  55.187  32.988  1.00  0.00    -0.349 N 
ATOM     17  H   UNL     1      -5.453  54.761  33.767  1.00  0.00     0.167 HD
BRANCH  16  18
ATOM     18  C   UNL     1      -3.793  55.843  33.505  1.00  0.00     0.075 A 
ATOM     19  C   UNL     1      -2.695  55.135  34.010  1.00  0.00     0.030 A 
ATOM     20  C   UNL     1      -3.675  57.237  33.381  1.00  0.00     0.147 A 
ATOM     21  C   UNL     1      -1.542  55.812  34.431  1.00  0.00     0.017 A 
ATOM     22  C   UNL     1      -2.538  57.922  33.799  1.00  0.00     0.056 A 
ATOM     23  C   UNL     1      -1.471  57.202  34.327  1.00  0.00     0.016 A 
ATOM     24  F   UNL     1      -4.692  57.938  32.855  1.00  0.00    -0.205 F 
ATOM     25  I   UNL     1       0.244  58.198  34.945  1.00  0.00    -0.044 I 
ENDBRANCH  16  18
ENDBRANCH  10  16
ENDBRANCH   4   6
ENDBRANCH   1   4
BRANCH   1  26
ATOM     26  C   UNL     1      -9.368  52.663  32.569  1.00  0.00     0.094 C 
ATOM     27  C   UNL     1     -10.082  51.973  33.723  1.00  0.00     0.027 C 
ATOM     28  C   UNL     1      -9.125  51.197  32.868  1.00  0.00     0.027 C 
BRANCH  26  29
ATOM     29  C   UNL     1     -10.173  53.165  31.404  1.00  0.00     0.059 C 
BRANCH  29  30
ATOM     30  C   UNL     1      -9.620  52.894  29.993  1.00  0.00     0.141 C 
BRANCH  30  31
ATOM     31  O   UNL     1      -9.106  54.114  29.436  1.00  0.00    -0.391 OA
ATOM     32  H   UNL     1      -8.522  53.865  28.695  1.00  0.00     0.211 HD
ENDBRANCH  30  31
BRANCH  30  33
ATOM     33  C   UNL     1     -10.590  52.276  28.983  1.00  0.00     0.187 C 
BRANCH  33  34
ATOM     34  O   UNL     1     -11.154  53.291  28.150  1.00  0.00    -0.394 OA
ATOM     35  H   UNL     1     -10.405  53.877  27.912  1.00  0.00     0.210 HD
ENDBRANCH  33  34
ENDBRANCH  30  33
ENDBRANCH  29  30
ENDBRANCH  26  29
ENDBRANCH   1  26
TORSDOF 11
ENDMDL
MODEL 9
REMARK minimizedAffinity -7.78961182
REMARK minimizedRMSD -1
REMARK SMILES COc1cc(F)c(F)c(Nc2ccc(I)cc2F)c1NS(=O)(=O)C1(C[C@H](O)CO)CC1
REMARK SMILES IDX 21 1 22 2 23 3 20 4 19 6 3 7 4 8 5 9 9 10 7 11 6 12 8 13
REMARK SMILES IDX 2 14 1 15 10 16 11 18 12 19 17 20 13 21 16 22 14 23 18 24
REMARK SMILES IDX 15 25 24 26 30 27 31 28 25 29 26 30 27 31 28 33 29 34
REMARK H PARENT 20 5 10 17 27 32 29 35
ROOT
ATOM      1  S   UNL     1      -8.615  60.671  33.704  1.00  0.00     0.238 S 
ATOM      2  O   UNL     1      -8.664  60.987  32.290  1.00  0.00    -0.206 OA
ATOM      3  O   UNL     1      -7.736  61.428  34.574  1.00  0.00    -0.206 OA
ENDROOT
BRANCH   1   4
ATOM      4  N   UNL     1     -10.189  60.782  34.350  1.00  0.00    -0.277 N 
ATOM      5  H   UNL     1     -10.085  61.082  35.336  1.00  0.00     0.180 HD
BRANCH   4   6
ATOM      6  C   UNL     1     -11.047  61.692  33.628  1.00  0.00     0.117 A 
ATOM      7  C   UNL     1     -11.931  61.207  32.644  1.00  0.00     0.148 A 
ATOM      8  C   UNL     1     -12.684  62.103  31.882  1.00  0.00     0.091 A 
ATOM      9  C   UNL     1     -12.529  63.470  32.087  1.00  0.00     0.164 A 
ATOM     10  C   UNL     1     -10.901  63.077  33.840  1.00  0.00     0.106 A 
ATOM     11  C   UNL     1     -11.651  63.956  33.050  1.00  0.00     0.184 A 
ATOM     12  F   UNL     1     -13.256  64.327  31.353  1.00  0.00    -0.204 F 
ATOM     13  F   UNL     1     -11.525  65.280  33.227  1.00  0.00    -0.201 F 
BRANCH   7  14
ATOM     14  O   UNL     1     -12.082  59.846  32.541  1.00  0.00    -0.494 OA
ATOM     15  C   UNL     1     -13.410  59.421  32.236  1.00  0.00     0.278 C 
ENDBRANCH   7  14
BRANCH  10  16
ATOM     16  N   UNL     1      -9.998  63.553  34.829  1.00  0.00    -0.349 N 
ATOM     17  H   UNL     1      -9.336  62.810  35.072  1.00  0.00     0.167 HD
BRANCH  16  18
ATOM     18  C   UNL     1      -9.288  64.781  34.743  1.00  0.00     0.075 A 
ATOM     19  C   UNL     1      -9.451  65.804  35.686  1.00  0.00     0.030 A 
ATOM     20  C   UNL     1      -8.284  64.935  33.774  1.00  0.00     0.147 A 
ATOM     21  C   UNL     1      -8.672  66.967  35.619  1.00  0.00     0.017 A 
ATOM     22  C   UNL     1      -7.505  66.085  33.693  1.00  0.00     0.056 A 
ATOM     23  C   UNL     1      -7.705  67.103  34.621  1.00  0.00     0.016 A 
ATOM     24  F   UNL     1      -8.071  63.949  32.887  1.00  0.00    -0.205 F 
ATOM     25  I   UNL     1      -6.547  68.825  34.532  1.00  0.00    -0.044 I 
ENDBRANCH  16  18
ENDBRANCH  10  16
ENDBRANCH   4   6
ENDBRANCH   1   4
BRANCH   1  26
ATOM     26  C   UNL     1      -8.121  58.908  33.848  1.00  0.00     0.094 C 
ATOM     27  C   UNL     1      -6.671  58.650  33.464  1.00  0.00     0.027 C 
ATOM     28  C   UNL     1      -7.772  58.232  32.536  1.00  0.00     0.027 C 
BRANCH  26  29
ATOM     29  C   UNL     1      -8.703  58.196  35.036  1.00  0.00     0.059 C 
BRANCH  29  30
ATOM     30  C   UNL     1      -9.884  57.242  34.781  1.00  0.00     0.141 C 
BRANCH  30  31
ATOM     31  O   UNL     1     -11.088  57.816  35.316  1.00  0.00    -0.391 OA
ATOM     32  H   UNL     1     -11.836  57.349  34.899  1.00  0.00     0.211 HD
ENDBRANCH  30  31
BRANCH  30  33
ATOM     33  C   UNL     1      -9.748  55.819  35.326  1.00  0.00     0.187 C 
BRANCH  33  34
ATOM     34  O   UNL     1     -10.860  55.498  36.165  1.00  0.00    -0.394 OA
ATOM     35  H   UNL     1     -11.648  55.836  35.689  1.00  0.00     0.210 HD
ENDBRANCH  33  34
ENDBRANCH  30  33
ENDBRANCH  29  30
ENDBRANCH  26  29
ENDBRANCH   1  26
TORSDOF 11
ENDMDL
MODEL 10
REMARK minimizedAffinity -7.74499035
REMARK minimizedRMSD -1
REMARK SMILES COc1cc(F)c(F)c(Nc2ccc(I)cc2F)c1NS(=O)(=O)C1(C[C@H](O)CO)CC1
REMARK SMILES IDX 21 1 22 2 23 3 20 4 19 6 3 7 4 8 5 9 9 10 7 11 6 12 8 13
REMARK SMILES IDX 2 14 1 15 10 16 11 18 12 19 17 20 13 21 16 22 14 23 18 24
REMARK SMILES IDX 15 25 24 26 30 27 31 28 25 29 26 30 27 31 28 33 29 34
REMARK H PARENT 20 5 10 17 27 32 29 35
ROOT
ATOM      1  S   UNL     1      -4.117  54.907  32.357  1.00  0.00     0.238 S 
ATOM      2  O   UNL     1      -4.678  53.817  33.131  1.00  0.00    -0.206 OA
ATOM      3  O   UNL     1      -3.261  54.613  31.226  1.00  0.00    -0.206 OA
ENDROOT
BRANCH   1   4
ATOM      4  N   UNL     1      -5.388  55.893  31.790  1.00  0.00    -0.277 N 
ATOM      5  H   UNL     1      -5.086  56.269  30.873  1.00  0.00     0.180 HD
BRANCH   4   6
ATOM      6  C   UNL     1      -6.647  55.197  31.667  1.00  0.00     0.117 A 
ATOM      7  C   UNL     1      -6.934  54.442  30.512  1.00  0.00     0.148 A 
ATOM      8  C   UNL     1      -8.191  53.854  30.359  1.00  0.00     0.091 A 
ATOM      9  C   UNL     1      -9.158  54.047  31.341  1.00  0.00     0.164 A 
ATOM     10  C   UNL     1      -7.625  55.381  32.664  1.00  0.00     0.106 A 
ATOM     11  C   UNL     1      -8.885  54.799  32.479  1.00  0.00     0.184 A 
ATOM     12  F   UNL     1     -10.364  53.478  31.189  1.00  0.00    -0.204 F 
ATOM     13  F   UNL     1      -9.837  54.964  33.410  1.00  0.00    -0.201 F 
BRANCH   7  14
ATOM     14  O   UNL     1      -5.913  54.239  29.617  1.00  0.00    -0.494 OA
ATOM     15  C   UNL     1      -5.680  52.870  29.287  1.00  0.00     0.278 C 
ENDBRANCH   7  14
BRANCH  10  16
ATOM     16  N   UNL     1      -7.326  56.152  33.819  1.00  0.00    -0.349 N 
ATOM     17  H   UNL     1      -6.329  56.068  34.037  1.00  0.00     0.167 HD
BRANCH  16  18
ATOM     18  C   UNL     1      -7.717  57.507  34.002  1.00  0.00     0.075 A 
ATOM     19  C   UNL     1      -7.166  58.550  33.248  1.00  0.00     0.030 A 
ATOM     20  C   UNL     1      -8.789  57.809  34.858  1.00  0.00     0.147 A 
ATOM     21  C   UNL     1      -7.637  59.862  33.395  1.00  0.00     0.017 A 
ATOM     22  C   UNL     1      -9.264  59.108  35.017  1.00  0.00     0.056 A 
ATOM     23  C   UNL     1      -8.681  60.135  34.281  1.00  0.00     0.016 A 
ATOM     24  F   UNL     1      -9.370  56.821  35.558  1.00  0.00    -0.205 F 
ATOM     25  I   UNL     1      -9.380  62.080  34.486  1.00  0.00    -0.044 I 
ENDBRANCH  16  18
ENDBRANCH  10  16
ENDBRANCH   4   6
ENDBRANCH   1   4
BRANCH   1  26
ATOM     26  C   UNL     1      -3.139  55.944  33.516  1.00  0.00     0.094 C 
ATOM     27  C   UNL     1      -3.977  56.959  34.278  1.00  0.00     0.027 C 
ATOM     28  C   UNL     1      -3.084  57.418  33.166  1.00  0.00     0.027 C 
BRANCH  26  29
ATOM     29  C   UNL     1      -2.046  55.206  34.237  1.00  0.00     0.059 C 
BRANCH  29  30
ATOM     30  C   UNL     1      -0.634  55.261  33.627  1.00  0.00     0.141 C 
BRANCH  30  31
ATOM     31  O   UNL     1      -0.098  53.931  33.537  1.00  0.00    -0.391 OA
ATOM     32  H   UNL     1       0.645  53.965  32.904  1.00  0.00     0.211 HD
ENDBRANCH  30  31
BRANCH  30  33
ATOM     33  C   UNL     1       0.391  56.143  34.345  1.00  0.00     0.187 C 
BRANCH  33  34
ATOM     34  O   UNL     1       0.580  57.367  33.631  1.00  0.00    -0.394 OA
ATOM     35  H   UNL     1      -0.321  57.659  33.376  1.00  0.00     0.210 HD
ENDBRANCH  33  34
ENDBRANCH  30  33
ENDBRANCH  29  30
ENDBRANCH  26  29
ENDBRANCH   1  26
TORSDOF 11
ENDMDL
MODEL 11
REMARK minimizedAffinity -7.72220087
REMARK minimizedRMSD -1
REMARK SMILES COc1cc(F)c(F)c(Nc2ccc(I)cc2F)c1NS(=O)(=O)C1(C[C@H](O)CO)CC1
REMARK SMILES IDX 21 1 22 2 23 3 20 4 19 6 3 7 4 8 5 9 9 10 7 11 6 12 8 13
REMARK SMILES IDX 2 14 1 15 10 16 11 18 12 19 17 20 13 21 16 22 14 23 18 24
REMARK SMILES IDX 15 25 24 26 30 27 31 28 25 29 26 30 27 31 28 33 29 34
REMARK H PARENT 20 5 10 17 27 32 29 35
ROOT
ATOM      1  S   UNL     1      -8.321  57.322  32.779  1.00  0.00     0.238 S 
ATOM      2  O   UNL     1      -7.301  57.978  31.984  1.00  0.00    -0.206 OA
ATOM      3  O   UNL     1      -9.302  56.479  32.125  1.00  0.00    -0.206 OA
ENDROOT
BRANCH   1   4
ATOM      4  N   UNL     1      -7.562  56.379  33.982  1.00  0.00    -0.277 N 
ATOM      5  H   UNL     1      -8.153  56.448  34.829  1.00  0.00     0.180 HD
BRANCH   4   6
ATOM      6  C   UNL     1      -7.374  55.000  33.600  1.00  0.00     0.117 A 
ATOM      7  C   UNL     1      -8.231  53.999  34.101  1.00  0.00     0.148 A 
ATOM      8  C   UNL     1      -7.981  52.657  33.805  1.00  0.00     0.091 A 
ATOM      9  C   UNL     1      -6.869  52.323  33.039  1.00  0.00     0.164 A 
ATOM     10  C   UNL     1      -6.255  54.658  32.815  1.00  0.00     0.106 A 
ATOM     11  C   UNL     1      -6.014  53.305  32.549  1.00  0.00     0.184 A 
ATOM     12  F   UNL     1      -6.635  51.032  32.757  1.00  0.00    -0.204 F 
ATOM     13  F   UNL     1      -4.951  52.951  31.811  1.00  0.00    -0.201 F 
BRANCH   7  14
ATOM     14  O   UNL     1      -9.345  54.405  34.794  1.00  0.00    -0.494 OA
ATOM     15  C   UNL     1      -9.343  54.049  36.176  1.00  0.00     0.278 C 
ENDBRANCH   7  14
BRANCH  10  16
ATOM     16  N   UNL     1      -5.394  55.676  32.324  1.00  0.00    -0.349 N 
ATOM     17  H   UNL     1      -5.930  56.539  32.189  1.00  0.00     0.167 HD
BRANCH  16  18
ATOM     18  C   UNL     1      -4.136  56.008  32.896  1.00  0.00     0.075 A 
ATOM     19  C   UNL     1      -3.037  55.144  32.832  1.00  0.00     0.030 A 
ATOM     20  C   UNL     1      -3.931  57.296  33.419  1.00  0.00     0.147 A 
ATOM     21  C   UNL     1      -1.788  55.540  33.331  1.00  0.00     0.017 A 
ATOM     22  C   UNL     1      -2.698  57.701  33.921  1.00  0.00     0.056 A 
ATOM     23  C   UNL     1      -1.625  56.815  33.876  1.00  0.00     0.016 A 
ATOM     24  F   UNL     1      -4.955  58.164  33.448  1.00  0.00    -0.205 F 
ATOM     25  I   UNL     1       0.230  57.398  34.605  1.00  0.00    -0.044 I 
ENDBRANCH  16  18
ENDBRANCH  10  16
ENDBRANCH   4   6
ENDBRANCH   1   4
BRANCH   1  26
ATOM     26  C   UNL     1      -9.248  58.638  33.663  1.00  0.00     0.094 C 
ATOM     27  C   UNL     1     -10.063  58.120  34.839  1.00  0.00     0.027 C 
ATOM     28  C   UNL     1     -10.757  58.528  33.575  1.00  0.00     0.027 C 
BRANCH  26  29
ATOM     29  C   UNL     1      -8.502  59.936  33.801  1.00  0.00     0.059 C 
BRANCH  29  30
ATOM     30  C   UNL     1      -8.608  60.940  32.640  1.00  0.00     0.141 C 
BRANCH  30  31
ATOM     31  O   UNL     1      -7.515  60.738  31.730  1.00  0.00    -0.391 OA
ATOM     32  H   UNL     1      -7.759  61.170  30.890  1.00  0.00     0.211 HD
ENDBRANCH  30  31
BRANCH  30  33
ATOM     33  C   UNL     1      -8.653  62.423  33.015  1.00  0.00     0.187 C 
BRANCH  33  34
ATOM     34  O   UNL     1      -8.583  63.235  31.842  1.00  0.00    -0.394 OA
ATOM     35  H   UNL     1      -9.186  62.809  31.196  1.00  0.00     0.210 HD
ENDBRANCH  33  34
ENDBRANCH  30  33
ENDBRANCH  29  30
ENDBRANCH  26  29
ENDBRANCH   1  26
TORSDOF 11
ENDMDL
MODEL 12
REMARK minimizedAffinity -7.71726799
REMARK minimizedRMSD -1
REMARK SMILES COc1cc(F)c(F)c(Nc2ccc(I)cc2F)c1NS(=O)(=O)C1(C[C@H](O)CO)CC1
REMARK SMILES IDX 21 1 22 2 23 3 20 4 19 6 3 7 4 8 5 9 9 10 7 11 6 12 8 13
REMARK SMILES IDX 2 14 1 15 10 16 11 18 12 19 17 20 13 21 16 22 14 23 18 24
REMARK SMILES IDX 15 25 24 26 30 27 31 28 25 29 26 30 27 31 28 33 29 34
REMARK H PARENT 20 5 10 17 27 32 29 35
ROOT
ATOM      1  S   UNL     1      -8.369  56.896  32.815  1.00  0.00     0.238 S 
ATOM      2  O   UNL     1      -7.153  57.582  32.423  1.00  0.00    -0.206 OA
ATOM      3  O   UNL     1      -9.606  57.182  32.117  1.00  0.00    -0.206 OA
ENDROOT
BRANCH   1   4
ATOM      4  N   UNL     1      -8.109  55.213  32.722  1.00  0.00    -0.277 N 
ATOM      5  H   UNL     1      -9.040  54.775  32.603  1.00  0.00     0.180 HD
BRANCH   4   6
ATOM      6  C   UNL     1      -7.221  54.825  31.651  1.00  0.00     0.117 A 
ATOM      7  C   UNL     1      -7.741  54.450  30.396  1.00  0.00     0.148 A 
ATOM      8  C   UNL     1      -6.882  53.982  29.399  1.00  0.00     0.091 A 
ATOM      9  C   UNL     1      -5.522  53.866  29.670  1.00  0.00     0.164 A 
ATOM     10  C   UNL     1      -5.842  54.717  31.918  1.00  0.00     0.106 A 
ATOM     11  C   UNL     1      -5.004  54.226  30.910  1.00  0.00     0.184 A 
ATOM     12  F   UNL     1      -4.701  53.418  28.708  1.00  0.00    -0.204 F 
ATOM     13  F   UNL     1      -3.687  54.106  31.139  1.00  0.00    -0.201 F 
BRANCH   7  14
ATOM     14  O   UNL     1      -9.081  54.652  30.177  1.00  0.00    -0.494 OA
ATOM     15  C   UNL     1      -9.586  54.034  28.995  1.00  0.00     0.278 C 
ENDBRANCH   7  14
BRANCH  10  16
ATOM     16  N   UNL     1      -5.333  55.090  33.191  1.00  0.00    -0.349 N 
ATOM     17  H   UNL     1      -5.422  54.301  33.838  1.00  0.00     0.167 HD
BRANCH  16  18
ATOM     18  C   UNL     1      -4.070  55.707  33.400  1.00  0.00     0.075 A 
ATOM     19  C   UNL     1      -3.836  57.051  33.086  1.00  0.00     0.030 A 
ATOM     20  C   UNL     1      -3.058  55.004  34.075  1.00  0.00     0.147 A 
ATOM     21  C   UNL     1      -2.605  57.651  33.386  1.00  0.00     0.017 A 
ATOM     22  C   UNL     1      -1.830  55.585  34.376  1.00  0.00     0.056 A 
ATOM     23  C   UNL     1      -1.607  56.914  34.026  1.00  0.00     0.016 A 
ATOM     24  F   UNL     1      -3.272  53.728  34.433  1.00  0.00    -0.205 F 
ATOM     25  I   UNL     1       0.212  57.810  34.476  1.00  0.00    -0.044 I 
ENDBRANCH  16  18
ENDBRANCH  10  16
ENDBRANCH   4   6
ENDBRANCH   1   4
BRANCH   1  26
ATOM     26  C   UNL     1      -8.654  57.276  34.589  1.00  0.00     0.094 C 
ATOM     27  C   UNL     1      -8.549  58.759  34.917  1.00  0.00     0.027 C 
ATOM     28  C   UNL     1      -7.450  57.825  35.329  1.00  0.00     0.027 C 
BRANCH  26  29
ATOM     29  C   UNL     1      -9.739  56.459  35.232  1.00  0.00     0.059 C 
BRANCH  29  30
ATOM     30  C   UNL     1      -9.477  54.953  35.413  1.00  0.00     0.141 C 
BRANCH  30  31
ATOM     31  O   UNL     1     -10.491  54.203  34.725  1.00  0.00    -0.391 OA
ATOM     32  H   UNL     1     -10.150  53.296  34.614  1.00  0.00     0.211 HD
ENDBRANCH  30  31
BRANCH  30  33
ATOM     33  C   UNL     1      -9.393  54.438  36.852  1.00  0.00     0.187 C 
BRANCH  33  34
ATOM     34  O   UNL     1      -9.766  53.060  36.910  1.00  0.00    -0.394 OA
ATOM     35  H   UNL     1      -9.321  52.639  36.144  1.00  0.00     0.210 HD
ENDBRANCH  33  34
ENDBRANCH  30  33
ENDBRANCH  29  30
ENDBRANCH  26  29
ENDBRANCH   1  26
TORSDOF 11
ENDMDL
MODEL 13
REMARK minimizedAffinity -7.71378422
REMARK minimizedRMSD -1
REMARK SMILES COc1cc(F)c(F)c(Nc2ccc(I)cc2F)c1NS(=O)(=O)C1(C[C@H](O)CO)CC1
REMARK SMILES IDX 21 1 22 2 23 3 20 4 19 6 3 7 4 8 5 9 9 10 7 11 6 12 8 13
REMARK SMILES IDX 2 14 1 15 10 16 11 18 12 19 17 20 13 21 16 22 14 23 18 24
REMARK SMILES IDX 15 25 24 26 30 27 31 28 25 29 26 30 27 31 28 33 29 34
REMARK H PARENT 20 5 10 17 27 32 29 35
ROOT
ATOM      1  S   UNL     1      -7.114  57.618  34.213  1.00  0.00     0.238 S 
ATOM      2  O   UNL     1      -7.178  56.180  34.387  1.00  0.00    -0.206 OA
ATOM      3  O   UNL     1      -6.872  58.466  35.364  1.00  0.00    -0.206 OA
ENDROOT
BRANCH   1   4
ATOM      4  N   UNL     1      -5.917  57.983  33.054  1.00  0.00    -0.277 N 
ATOM      5  H   UNL     1      -5.613  58.956  33.236  1.00  0.00     0.180 HD
BRANCH   4   6
ATOM      6  C   UNL     1      -4.790  57.081  33.085  1.00  0.00     0.117 A 
ATOM      7  C   UNL     1      -3.782  57.235  34.057  1.00  0.00     0.148 A 
ATOM      8  C   UNL     1      -2.648  56.420  34.019  1.00  0.00     0.091 A 
ATOM      9  C   UNL     1      -2.516  55.483  33.000  1.00  0.00     0.164 A 
ATOM     10  C   UNL     1      -4.658  56.123  32.061  1.00  0.00     0.106 A 
ATOM     11  C   UNL     1      -3.502  55.333  32.031  1.00  0.00     0.184 A 
ATOM     12  F   UNL     1      -1.425  54.703  32.969  1.00  0.00    -0.204 F 
ATOM     13  F   UNL     1      -3.347  54.417  31.062  1.00  0.00    -0.201 F 
BRANCH   7  14
ATOM     14  O   UNL     1      -4.009  58.133  35.071  1.00  0.00    -0.494 OA
ATOM     15  C   UNL     1      -3.125  58.002  36.184  1.00  0.00     0.278 C 
ENDBRANCH   7  14
BRANCH  10  16
ATOM     16  N   UNL     1      -5.677  55.985  31.081  1.00  0.00    -0.349 N 
ATOM     17  H   UNL     1      -5.336  56.337  30.181  1.00  0.00     0.167 HD
BRANCH  16  18
ATOM     18  C   UNL     1      -6.412  54.790  30.850  1.00  0.00     0.075 A 
ATOM     19  C   UNL     1      -7.494  54.414  31.655  1.00  0.00     0.030 A 
ATOM     20  C   UNL     1      -6.150  54.026  29.701  1.00  0.00     0.147 A 
ATOM     21  C   UNL     1      -8.250  53.274  31.346  1.00  0.00     0.017 A 
ATOM     22  C   UNL     1      -6.890  52.890  29.384  1.00  0.00     0.056 A 
ATOM     23  C   UNL     1      -7.942  52.516  30.215  1.00  0.00     0.016 A 
ATOM     24  F   UNL     1      -5.150  54.392  28.883  1.00  0.00    -0.205 F 
ATOM     25  I   UNL     1      -9.072  50.834  29.759  1.00  0.00    -0.044 I 
ENDBRANCH  16  18
ENDBRANCH  10  16
ENDBRANCH   4   6
ENDBRANCH   1   4
BRANCH   1  26
ATOM     26  C   UNL     1      -8.715  58.147  33.485  1.00  0.00     0.094 C 
ATOM     27  C   UNL     1      -9.765  57.045  33.465  1.00  0.00     0.027 C 
ATOM     28  C   UNL     1      -9.090  57.453  32.190  1.00  0.00     0.027 C 
BRANCH  26  29
ATOM     29  C   UNL     1      -9.128  59.547  33.843  1.00  0.00     0.059 C 
BRANCH  29  30
ATOM     30  C   UNL     1      -8.415  60.702  33.117  1.00  0.00     0.141 C 
BRANCH  30  31
ATOM     31  O   UNL     1      -7.480  61.326  34.010  1.00  0.00    -0.391 OA
ATOM     32  H   UNL     1      -6.859  61.841  33.460  1.00  0.00     0.211 HD
ENDBRANCH  30  31
BRANCH  30  33
ATOM     33  C   UNL     1      -9.307  61.791  32.517  1.00  0.00     0.187 C 
BRANCH  33  34
ATOM     34  O   UNL     1      -8.524  62.714  31.758  1.00  0.00    -0.394 OA
ATOM     35  H   UNL     1      -7.902  62.160  31.240  1.00  0.00     0.210 HD
ENDBRANCH  33  34
ENDBRANCH  30  33
ENDBRANCH  29  30
ENDBRANCH  26  29
ENDBRANCH   1  26
TORSDOF 11
ENDMDL
MODEL 14
REMARK minimizedAffinity -7.71182823
REMARK minimizedRMSD -1
REMARK SMILES COc1cc(F)c(F)c(Nc2ccc(I)cc2F)c1NS(=O)(=O)C1(C[C@H](O)CO)CC1
REMARK SMILES IDX 21 1 22 2 23 3 20 4 19 6 3 7 4 8 5 9 9 10 7 11 6 12 8 13
REMARK SMILES IDX 2 14 1 15 10 16 11 18 12 19 17 20 13 21 16 22 14 23 18 24
REMARK SMILES IDX 15 25 24 26 30 27 31 28 25 29 26 30 27 31 28 33 29 34
REMARK H PARENT 20 5 10 17 27 32 29 35
ROOT
ATOM      1  S   UNL     1      -8.920  57.007  33.449  1.00  0.00     0.238 S 
ATOM      2  O   UNL     1      -9.094  56.736  32.036  1.00  0.00    -0.206 OA
ATOM      3  O   UNL     1     -10.083  57.252  34.278  1.00  0.00    -0.206 OA
ENDROOT
BRANCH   1   4
ATOM      4  N   UNL     1      -8.055  55.717  34.157  1.00  0.00    -0.277 N 
ATOM      5  H   UNL     1      -8.169  55.810  35.182  1.00  0.00     0.180 HD
BRANCH   4   6
ATOM      6  C   UNL     1      -8.493  54.416  33.710  1.00  0.00     0.117 A 
ATOM      7  C   UNL     1      -9.495  53.721  34.416  1.00  0.00     0.148 A 
ATOM      8  C   UNL     1      -9.842  52.423  34.035  1.00  0.00     0.091 A 
ATOM      9  C   UNL     1      -9.171  51.821  32.976  1.00  0.00     0.164 A 
ATOM     10  C   UNL     1      -7.823  53.807  32.631  1.00  0.00     0.106 A 
ATOM     11  C   UNL     1      -8.174  52.497  32.281  1.00  0.00     0.184 A 
ATOM     12  F   UNL     1      -9.509  50.574  32.613  1.00  0.00    -0.204 F 
ATOM     13  F   UNL     1      -7.546  51.891  31.261  1.00  0.00    -0.201 F 
BRANCH   7  14
ATOM     14  O   UNL     1     -10.161  54.399  35.407  1.00  0.00    -0.494 OA
ATOM     15  C   UNL     1      -9.568  54.288  36.700  1.00  0.00     0.278 C 
ENDBRANCH   7  14
BRANCH  10  16
ATOM     16  N   UNL     1      -6.808  54.516  31.934  1.00  0.00    -0.349 N 
ATOM     17  H   UNL     1      -7.175  55.420  31.623  1.00  0.00     0.167 HD
BRANCH  16  18
ATOM     18  C   UNL     1      -5.485  54.706  32.419  1.00  0.00     0.075 A 
ATOM     19  C   UNL     1      -4.961  53.949  33.473  1.00  0.00     0.030 A 
ATOM     20  C   UNL     1      -4.616  55.575  31.738  1.00  0.00     0.147 A 
ATOM     21  C   UNL     1      -3.625  54.104  33.868  1.00  0.00     0.017 A 
ATOM     22  C   UNL     1      -3.289  55.742  32.122  1.00  0.00     0.056 A 
ATOM     23  C   UNL     1      -2.797  55.002  33.193  1.00  0.00     0.016 A 
ATOM     24  F   UNL     1      -5.078  56.279  30.691  1.00  0.00    -0.205 F 
ATOM     25  I   UNL     1      -0.816  55.221  33.777  1.00  0.00    -0.044 I 
ENDBRANCH  16  18
ENDBRANCH  10  16
ENDBRANCH   4   6
ENDBRANCH   1   4
BRANCH   1  26
ATOM     26  C   UNL     1      -7.841  58.487  33.587  1.00  0.00     0.094 C 
ATOM     27  C   UNL     1      -6.692  58.495  32.589  1.00  0.00     0.027 C 
ATOM     28  C   UNL     1      -6.420  58.205  34.035  1.00  0.00     0.027 C 
BRANCH  26  29
ATOM     29  C   UNL     1      -8.577  59.767  33.868  1.00  0.00     0.059 C 
BRANCH  29  30
ATOM     30  C   UNL     1      -8.645  60.237  35.332  1.00  0.00     0.141 C 
BRANCH  30  31
ATOM     31  O   UNL     1      -9.677  59.514  36.021  1.00  0.00    -0.391 OA
ATOM     32  H   UNL     1      -9.508  59.616  36.977  1.00  0.00     0.211 HD
ENDBRANCH  30  31
BRANCH  30  33
ATOM     33  C   UNL     1      -8.870  61.733  35.564  1.00  0.00     0.187 C 
BRANCH  33  34
ATOM     34  O   UNL     1      -8.946  62.014  36.963  1.00  0.00    -0.394 OA
ATOM     35  H   UNL     1      -8.223  61.493  37.371  1.00  0.00     0.210 HD
ENDBRANCH  33  34
ENDBRANCH  30  33
ENDBRANCH  29  30
ENDBRANCH  26  29
ENDBRANCH   1  26
TORSDOF 11
ENDMDL
MODEL 15
REMARK minimizedAffinity -7.66052151
REMARK minimizedRMSD -1
REMARK SMILES COc1cc(F)c(F)c(Nc2ccc(I)cc2F)c1NS(=O)(=O)C1(C[C@H](O)CO)CC1
REMARK SMILES IDX 21 1 22 2 23 3 20 4 19 6 3 7 4 8 5 9 9 10 7 11 6 12 8 13
REMARK SMILES IDX 2 14 1 15 10 16 11 18 12 19 17 20 13 21 16 22 14 23 18 24
REMARK SMILES IDX 15 25 24 26 30 27 31 28 25 29 26 30 27 31 28 33 29 34
REMARK H PARENT 20 5 10 17 27 32 29 35
ROOT
ATOM      1  S   UNL     1      -5.062  54.159  32.023  1.00  0.00     0.238 S 
ATOM      2  O   UNL     1      -5.018  53.510  33.318  1.00  0.00    -0.206 OA
ATOM      3  O   UNL     1      -4.355  53.567  30.904  1.00  0.00    -0.206 OA
ENDROOT
BRANCH   1   4
ATOM      4  N   UNL     1      -6.691  54.346  31.553  1.00  0.00    -0.277 N 
ATOM      5  H   UNL     1      -6.710  54.294  30.518  1.00  0.00     0.180 HD
BRANCH   4   6
ATOM      6  C   UNL     1      -7.575  53.361  32.130  1.00  0.00     0.117 A 
ATOM      7  C   UNL     1      -7.839  52.156  31.450  1.00  0.00     0.148 A 
ATOM      8  C   UNL     1      -8.770  51.254  31.969  1.00  0.00     0.091 A 
ATOM      9  C   UNL     1      -9.448  51.572  33.142  1.00  0.00     0.164 A 
ATOM     10  C   UNL     1      -8.254  53.675  33.324  1.00  0.00     0.106 A 
ATOM     11  C   UNL     1      -9.198  52.764  33.813  1.00  0.00     0.184 A 
ATOM     12  F   UNL     1     -10.340  50.701  33.636  1.00  0.00    -0.204 F 
ATOM     13  F   UNL     1      -9.865  53.041  34.944  1.00  0.00    -0.201 F 
BRANCH   7  14
ATOM     14  O   UNL     1      -7.087  51.877  30.335  1.00  0.00    -0.494 OA
ATOM     15  C   UNL     1      -6.703  50.509  30.210  1.00  0.00     0.278 C 
ENDBRANCH   7  14
BRANCH  10  16
ATOM     16  N   UNL     1      -7.985  54.898  33.995  1.00  0.00    -0.349 N 
ATOM     17  H   UNL     1      -7.006  55.160  33.846  1.00  0.00     0.167 HD
BRANCH  16  18
ATOM     18  C   UNL     1      -8.787  56.066  33.887  1.00  0.00     0.075 A 
ATOM     19  C   UNL     1      -8.879  56.800  32.698  1.00  0.00     0.030 A 
ATOM     20  C   UNL     1      -9.632  56.427  34.949  1.00  0.00     0.147 A 
ATOM     21  C   UNL     1      -9.747  57.897  32.601  1.00  0.00     0.017 A 
ATOM     22  C   UNL     1     -10.496  57.515  34.869  1.00  0.00     0.056 A 
ATOM     23  C   UNL     1     -10.548  58.251  33.688  1.00  0.00     0.016 A 
ATOM     24  F   UNL     1      -9.602  55.711  36.084  1.00  0.00    -0.205 F 
ATOM     25  I   UNL     1     -11.839  59.871  33.536  1.00  0.00    -0.044 I 
ENDBRANCH  16  18
ENDBRANCH  10  16
ENDBRANCH   4   6
ENDBRANCH   1   4
BRANCH   1  26
ATOM     26  C   UNL     1      -4.391  55.854  32.244  1.00  0.00     0.094 C 
ATOM     27  C   UNL     1      -5.093  56.646  33.338  1.00  0.00     0.027 C 
ATOM     28  C   UNL     1      -5.353  56.974  31.898  1.00  0.00     0.027 C 
BRANCH  26  29
ATOM     29  C   UNL     1      -2.897  55.953  32.111  1.00  0.00     0.059 C 
BRANCH  29  30
ATOM     30  C   UNL     1      -2.071  55.973  33.409  1.00  0.00     0.141 C 
BRANCH  30  31
ATOM     31  O   UNL     1      -1.336  57.205  33.491  1.00  0.00    -0.391 OA
ATOM     32  H   UNL     1      -1.064  57.314  34.422  1.00  0.00     0.211 HD
ENDBRANCH  30  31
BRANCH  30  33
ATOM     33  C   UNL     1      -1.091  54.816  33.618  1.00  0.00     0.187 C 
BRANCH  33  34
ATOM     34  O   UNL     1       0.253  55.261  33.425  1.00  0.00    -0.394 OA
ATOM     35  H   UNL     1       0.308  56.124  33.888  1.00  0.00     0.210 HD
ENDBRANCH  33  34
ENDBRANCH  30  33
ENDBRANCH  29  30
ENDBRANCH  26  29
ENDBRANCH   1  26
TORSDOF 11
ENDMDL
MODEL 16
REMARK minimizedAffinity -7.64938641
REMARK minimizedRMSD -1
REMARK SMILES COc1cc(F)c(F)c(Nc2ccc(I)cc2F)c1NS(=O)(=O)C1(C[C@H](O)CO)CC1
REMARK SMILES IDX 21 1 22 2 23 3 20 4 19 6 3 7 4 8 5 9 9 10 7 11 6 12 8 13
REMARK SMILES IDX 2 14 1 15 10 16 11 18 12 19 17 20 13 21 16 22 14 23 18 24
REMARK SMILES IDX 15 25 24 26 30 27 31 28 25 29 26 30 27 31 28 33 29 34
REMARK H PARENT 20 5 10 17 27 32 29 35
ROOT
ATOM      1  S   UNL     1      -7.096  65.013  34.079  1.00  0.00     0.238 S 
ATOM      2  O   UNL     1      -6.382  64.087  34.935  1.00  0.00    -0.206 OA
ATOM      3  O   UNL     1      -7.381  64.643  32.707  1.00  0.00    -0.206 OA
ENDROOT
BRANCH   1   4
ATOM      4  N   UNL     1      -8.581  65.416  34.816  1.00  0.00    -0.277 N 
ATOM      5  H   UNL     1      -8.616  66.450  34.869  1.00  0.00     0.180 HD
BRANCH   4   6
ATOM      6  C   UNL     1      -9.732  64.901  34.111  1.00  0.00     0.117 A 
ATOM      7  C   UNL     1     -10.518  65.755  33.313  1.00  0.00     0.148 A 
ATOM      8  C   UNL     1     -11.684  65.271  32.715  1.00  0.00     0.091 A 
ATOM      9  C   UNL     1     -12.070  63.954  32.941  1.00  0.00     0.164 A 
ATOM     10  C   UNL     1     -10.120  63.565  34.329  1.00  0.00     0.106 A 
ATOM     11  C   UNL     1     -11.304  63.108  33.737  1.00  0.00     0.184 A 
ATOM     12  F   UNL     1     -13.190  63.494  32.364  1.00  0.00    -0.204 F 
ATOM     13  F   UNL     1     -11.700  61.842  33.934  1.00  0.00    -0.201 F 
BRANCH   7  14
ATOM     14  O   UNL     1     -10.043  67.022  33.079  1.00  0.00    -0.494 OA
ATOM     15  C   UNL     1     -11.044  68.039  33.092  1.00  0.00     0.278 C 
ENDBRANCH   7  14
BRANCH  10  16
ATOM     16  N   UNL     1      -9.323  62.717  35.145  1.00  0.00    -0.349 N 
ATOM     17  H   UNL     1      -9.751  62.635  36.071  1.00  0.00     0.167 HD
BRANCH  16  18
ATOM     18  C   UNL     1      -8.849  61.437  34.749  1.00  0.00     0.075 A 
ATOM     19  C   UNL     1      -8.288  61.207  33.487  1.00  0.00     0.030 A 
ATOM     20  C   UNL     1      -8.802  60.394  35.689  1.00  0.00     0.147 A 
ATOM     21  C   UNL     1      -7.752  59.953  33.162  1.00  0.00     0.017 A 
ATOM     22  C   UNL     1      -8.277  59.143  35.379  1.00  0.00     0.056 A 
ATOM     23  C   UNL     1      -7.753  58.927  34.108  1.00  0.00     0.016 A 
ATOM     24  F   UNL     1      -9.289  60.600  36.923  1.00  0.00    -0.205 F 
ATOM     25  I   UNL     1      -6.949  57.073  33.623  1.00  0.00    -0.044 I 
ENDBRANCH  16  18
ENDBRANCH  10  16
ENDBRANCH   4   6
ENDBRANCH   1   4
BRANCH   1  26
ATOM     26  C   UNL     1      -6.112  66.563  34.022  1.00  0.00     0.094 C 
ATOM     27  C   UNL     1      -4.676  66.354  33.563  1.00  0.00     0.027 C 
ATOM     28  C   UNL     1      -4.962  66.629  35.008  1.00  0.00     0.027 C 
BRANCH  26  29
ATOM     29  C   UNL     1      -6.872  67.763  33.530  1.00  0.00     0.059 C 
BRANCH  29  30
ATOM     30  C   UNL     1      -7.295  68.810  34.576  1.00  0.00     0.141 C 
BRANCH  30  31
ATOM     31  O   UNL     1      -8.372  68.288  35.370  1.00  0.00    -0.391 OA
ATOM     32  H   UNL     1      -8.420  68.832  36.179  1.00  0.00     0.211 HD
ENDBRANCH  30  31
BRANCH  30  33
ATOM     33  C   UNL     1      -7.712  70.183  34.044  1.00  0.00     0.187 C 
BRANCH  33  34
ATOM     34  O   UNL     1      -7.857  70.143  32.623  1.00  0.00    -0.394 OA
ATOM     35  H   UNL     1      -8.334  69.307  32.435  1.00  0.00     0.210 HD
ENDBRANCH  33  34
ENDBRANCH  30  33
ENDBRANCH  29  30
ENDBRANCH  26  29
ENDBRANCH   1  26
TORSDOF 11
ENDMDL
MODEL 17
REMARK minimizedAffinity -7.5501895
REMARK minimizedRMSD -1
REMARK SMILES COc1cc(F)c(F)c(Nc2ccc(I)cc2F)c1NS(=O)(=O)C1(C[C@H](O)CO)CC1
REMARK SMILES IDX 21 1 22 2 23 3 20 4 19 6 3 7 4 8 5 9 9 10 7 11 6 12 8 13
REMARK SMILES IDX 2 14 1 15 10 16 11 18 12 19 17 20 13 21 16 22 14 23 18 24
REMARK SMILES IDX 15 25 24 26 30 27 31 28 25 29 26 30 27 31 28 33 29 34
REMARK H PARENT 20 5 10 17 27 32 29 35
ROOT
ATOM      1  S   UNL     1     -12.372  62.590  32.288  1.00  0.00     0.238 S 
ATOM      2  O   UNL     1     -12.470  61.854  31.043  1.00  0.00    -0.206 OA
ATOM      3  O   UNL     1     -12.715  61.935  33.534  1.00  0.00    -0.206 OA
ENDROOT
BRANCH   1   4
ATOM      4  N   UNL     1     -10.784  63.192  32.451  1.00  0.00    -0.277 N 
ATOM      5  H   UNL     1     -10.862  64.223  32.511  1.00  0.00     0.180 HD
BRANCH   4   6
ATOM      6  C   UNL     1     -10.083  62.665  33.597  1.00  0.00     0.117 A 
ATOM      7  C   UNL     1      -9.780  61.291  33.677  1.00  0.00     0.148 A 
ATOM      8  C   UNL     1      -9.189  60.775  34.832  1.00  0.00     0.091 A 
ATOM      9  C   UNL     1      -8.933  61.623  35.905  1.00  0.00     0.164 A 
ATOM     10  C   UNL     1      -9.811  63.523  34.681  1.00  0.00     0.106 A 
ATOM     11  C   UNL     1      -9.239  62.978  35.837  1.00  0.00     0.184 A 
ATOM     12  F   UNL     1      -8.365  61.121  37.012  1.00  0.00    -0.204 F 
ATOM     13  F   UNL     1      -8.976  63.771  36.887  1.00  0.00    -0.201 F 
BRANCH   7  14
ATOM     14  O   UNL     1      -9.998  60.526  32.558  1.00  0.00    -0.494 OA
ATOM     15  C   UNL     1     -10.326  59.164  32.829  1.00  0.00     0.278 C 
ENDBRANCH   7  14
BRANCH  10  16
ATOM     16  N   UNL     1     -10.131  64.905  34.591  1.00  0.00    -0.349 N 
ATOM     17  H   UNL     1     -10.850  65.134  35.284  1.00  0.00     0.167 HD
BRANCH  16  18
ATOM     18  C   UNL     1      -9.169  65.951  34.573  1.00  0.00     0.075 A 
ATOM     19  C   UNL     1      -9.053  66.875  35.619  1.00  0.00     0.030 A 
ATOM     20  C   UNL     1      -8.203  65.987  33.554  1.00  0.00     0.147 A 
ATOM     21  C   UNL     1      -8.036  67.840  35.608  1.00  0.00     0.017 A 
ATOM     22  C   UNL     1      -7.190  66.942  33.529  1.00  0.00     0.056 A 
ATOM     23  C   UNL     1      -7.113  67.871  34.562  1.00  0.00     0.016 A 
ATOM     24  F   UNL     1      -8.259  65.081  32.564  1.00  0.00    -0.205 F 
ATOM     25  I   UNL     1      -5.604  69.298  34.558  1.00  0.00    -0.044 I 
ENDBRANCH  16  18
ENDBRANCH  10  16
ENDBRANCH   4   6
ENDBRANCH   1   4
BRANCH   1  26
ATOM     26  C   UNL     1     -13.466  64.058  32.135  1.00  0.00     0.094 C 
ATOM     27  C   UNL     1     -14.864  63.723  31.634  1.00  0.00     0.027 C 
ATOM     28  C   UNL     1     -13.887  64.398  30.719  1.00  0.00     0.027 C 
BRANCH  26  29
ATOM     29  C   UNL     1     -13.304  65.070  33.234  1.00  0.00     0.059 C 
BRANCH  29  30
ATOM     30  C   UNL     1     -12.792  66.467  32.839  1.00  0.00     0.141 C 
BRANCH  30  31
ATOM     31  O   UNL     1     -11.542  66.341  32.142  1.00  0.00    -0.391 OA
ATOM     32  H   UNL     1     -11.395  67.181  31.667  1.00  0.00     0.211 HD
ENDBRANCH  30  31
BRANCH  30  33
ATOM     33  C   UNL     1     -12.609  67.478  33.974  1.00  0.00     0.187 C 
BRANCH  33  34
ATOM     34  O   UNL     1     -12.584  66.809  35.237  1.00  0.00    -0.394 OA
ATOM     35  H   UNL     1     -12.017  66.020  35.100  1.00  0.00     0.210 HD
ENDBRANCH  33  34
ENDBRANCH  30  33
ENDBRANCH  29  30
ENDBRANCH  26  29
ENDBRANCH   1  26
TORSDOF 11
ENDMDL
MODEL 18
REMARK minimizedAffinity -7.47000122
REMARK minimizedRMSD -1
REMARK SMILES COc1cc(F)c(F)c(Nc2ccc(I)cc2F)c1NS(=O)(=O)C1(C[C@H](O)CO)CC1
REMARK SMILES IDX 21 1 22 2 23 3 20 4 19 6 3 7 4 8 5 9 9 10 7 11 6 12 8 13
REMARK SMILES IDX 2 14 1 15 10 16 11 18 12 19 17 20 13 21 16 22 14 23 18 24
REMARK SMILES IDX 15 25 24 26 30 27 31 28 25 29 26 30 27 31 28 33 29 34
REMARK H PARENT 20 5 10 17 27 32 29 35
ROOT
ATOM      1  S   UNL     1      -7.236  52.220  32.233  1.00  0.00     0.238 S 
ATOM      2  O   UNL     1      -6.566  51.266  31.370  1.00  0.00    -0.206 OA
ATOM      3  O   UNL     1      -6.742  52.434  33.579  1.00  0.00    -0.206 OA
ENDROOT
BRANCH   1   4
ATOM      4  N   UNL     1      -7.272  53.738  31.457  1.00  0.00    -0.277 N 
ATOM      5  H   UNL     1      -8.073  54.258  31.858  1.00  0.00     0.180 HD
BRANCH   4   6
ATOM      6  C   UNL     1      -6.049  54.491  31.606  1.00  0.00     0.117 A 
ATOM      7  C   UNL     1      -4.972  54.281  30.721  1.00  0.00     0.148 A 
ATOM      8  C   UNL     1      -3.760  54.942  30.932  1.00  0.00     0.091 A 
ATOM      9  C   UNL     1      -3.622  55.779  32.034  1.00  0.00     0.164 A 
ATOM     10  C   UNL     1      -5.909  55.348  32.715  1.00  0.00     0.106 A 
ATOM     11  C   UNL     1      -4.678  55.983  32.917  1.00  0.00     0.184 A 
ATOM     12  F   UNL     1      -2.455  56.412  32.232  1.00  0.00    -0.204 F 
ATOM     13  F   UNL     1      -4.515  56.799  33.970  1.00  0.00    -0.201 F 
BRANCH   7  14
ATOM     14  O   UNL     1      -5.199  53.495  29.619  1.00  0.00    -0.494 OA
ATOM     15  C   UNL     1      -4.160  52.557  29.339  1.00  0.00     0.278 C 
ENDBRANCH   7  14
BRANCH  10  16
ATOM     16  N   UNL     1      -7.000  55.543  33.604  1.00  0.00    -0.349 N 
ATOM     17  H   UNL     1      -6.765  55.155  34.522  1.00  0.00     0.167 HD
BRANCH  16  18
ATOM     18  C   UNL     1      -7.669  56.783  33.794  1.00  0.00     0.075 A 
ATOM     19  C   UNL     1      -7.437  57.591  34.914  1.00  0.00     0.030 A 
ATOM     20  C   UNL     1      -8.481  57.297  32.769  1.00  0.00     0.147 A 
ATOM     21  C   UNL     1      -8.049  58.847  35.026  1.00  0.00     0.017 A 
ATOM     22  C   UNL     1      -9.098  58.540  32.869  1.00  0.00     0.056 A 
ATOM     23  C   UNL     1      -8.879  59.314  34.005  1.00  0.00     0.016 A 
ATOM     24  F   UNL     1      -8.681  56.565  31.661  1.00  0.00    -0.205 F 
ATOM     25  I   UNL     1      -9.775  61.180  34.174  1.00  0.00    -0.044 I 
ENDBRANCH  16  18
ENDBRANCH  10  16
ENDBRANCH   4   6
ENDBRANCH   1   4
BRANCH   1  26
ATOM     26  C   UNL     1      -8.984  51.676  32.384  1.00  0.00     0.094 C 
ATOM     27  C   UNL     1      -9.312  50.448  31.548  1.00  0.00     0.027 C 
ATOM     28  C   UNL     1      -9.804  51.796  31.114  1.00  0.00     0.027 C 
BRANCH  26  29
ATOM     29  C   UNL     1      -9.553  51.793  33.770  1.00  0.00     0.059 C 
BRANCH  29  30
ATOM     30  C   UNL     1     -10.031  53.184  34.223  1.00  0.00     0.141 C 
BRANCH  30  31
ATOM     31  O   UNL     1      -9.834  54.130  33.160  1.00  0.00    -0.391 OA
ATOM     32  H   UNL     1     -10.392  54.905  33.360  1.00  0.00     0.211 HD
ENDBRANCH  30  31
BRANCH  30  33
ATOM     33  C   UNL     1      -9.391  53.751  35.493  1.00  0.00     0.187 C 
BRANCH  33  34
ATOM     34  O   UNL     1      -9.765  52.969  36.630  1.00  0.00    -0.394 OA
ATOM     35  H   UNL     1      -9.687  52.036  36.339  1.00  0.00     0.210 HD
ENDBRANCH  33  34
ENDBRANCH  30  33
ENDBRANCH  29  30
ENDBRANCH  26  29
ENDBRANCH   1  26
TORSDOF 11
ENDMDL
MODEL 19
REMARK minimizedAffinity -7.43270254
REMARK minimizedRMSD -1
REMARK SMILES COc1cc(F)c(F)c(Nc2ccc(I)cc2F)c1NS(=O)(=O)C1(C[C@H](O)CO)CC1
REMARK SMILES IDX 21 1 22 2 23 3 20 4 19 6 3 7 4 8 5 9 9 10 7 11 6 12 8 13
REMARK SMILES IDX 2 14 1 15 10 16 11 18 12 19 17 20 13 21 16 22 14 23 18 24
REMARK SMILES IDX 15 25 24 26 30 27 31 28 25 29 26 30 27 31 28 33 29 34
REMARK H PARENT 20 5 10 17 27 32 29 35
ROOT
ATOM      1  S   UNL     1      -9.231  57.415  33.396  1.00  0.00     0.238 S 
ATOM      2  O   UNL     1      -9.207  56.896  32.043  1.00  0.00    -0.206 OA
ATOM      3  O   UNL     1     -10.457  57.348  34.166  1.00  0.00    -0.206 OA
ENDROOT
BRANCH   1   4
ATOM      4  N   UNL     1      -8.016  56.639  34.308  1.00  0.00    -0.277 N 
ATOM      5  H   UNL     1      -8.324  56.663  35.296  1.00  0.00     0.180 HD
BRANCH   4   6
ATOM      6  C   UNL     1      -7.758  55.282  33.886  1.00  0.00     0.117 A 
ATOM      7  C   UNL     1      -8.489  54.213  34.441  1.00  0.00     0.148 A 
ATOM      8  C   UNL     1      -8.166  52.898  34.100  1.00  0.00     0.091 A 
ATOM      9  C   UNL     1      -7.102  52.659  33.236  1.00  0.00     0.164 A 
ATOM     10  C   UNL     1      -6.688  55.036  33.002  1.00  0.00     0.106 A 
ATOM     11  C   UNL     1      -6.370  53.709  32.693  1.00  0.00     0.184 A 
ATOM     12  F   UNL     1      -6.797  51.393  32.912  1.00  0.00    -0.204 F 
ATOM     13  F   UNL     1      -5.351  53.447  31.859  1.00  0.00    -0.201 F 
BRANCH   7  14
ATOM     14  O   UNL     1      -9.566  54.524  35.234  1.00  0.00    -0.494 OA
ATOM     15  C   UNL     1      -9.367  54.275  36.624  1.00  0.00     0.278 C 
ENDBRANCH   7  14
BRANCH  10  16
ATOM     16  N   UNL     1      -5.953  56.123  32.458  1.00  0.00    -0.349 N 
ATOM     17  H   UNL     1      -6.574  56.929  32.337  1.00  0.00     0.167 HD
BRANCH  16  18
ATOM     18  C   UNL     1      -4.708  56.584  32.966  1.00  0.00     0.075 A 
ATOM     19  C   UNL     1      -4.608  57.282  34.175  1.00  0.00     0.030 A 
ATOM     20  C   UNL     1      -3.516  56.211  32.322  1.00  0.00     0.147 A 
ATOM     21  C   UNL     1      -3.355  57.646  34.689  1.00  0.00     0.017 A 
ATOM     22  C   UNL     1      -2.266  56.568  32.818  1.00  0.00     0.056 A 
ATOM     23  C   UNL     1      -2.191  57.290  34.006  1.00  0.00     0.016 A 
ATOM     24  F   UNL     1      -3.579  55.498  31.186  1.00  0.00    -0.205 F 
ATOM     25  I   UNL     1      -0.337  57.823  34.777  1.00  0.00    -0.044 I 
ENDBRANCH  16  18
ENDBRANCH  10  16
ENDBRANCH   4   6
ENDBRANCH   1   4
BRANCH   1  26
ATOM     26  C   UNL     1      -8.753  59.186  33.304  1.00  0.00     0.094 C 
ATOM     27  C   UNL     1      -7.960  59.537  32.053  1.00  0.00     0.027 C 
ATOM     28  C   UNL     1      -7.262  59.452  33.377  1.00  0.00     0.027 C 
BRANCH  26  29
ATOM     29  C   UNL     1      -9.805  60.140  33.796  1.00  0.00     0.059 C 
BRANCH  29  30
ATOM     30  C   UNL     1     -11.081  60.285  32.947  1.00  0.00     0.141 C 
BRANCH  30  31
ATOM     31  O   UNL     1     -11.015  61.501  32.185  1.00  0.00    -0.391 OA
ATOM     32  H   UNL     1     -11.671  61.424  31.467  1.00  0.00     0.211 HD
ENDBRANCH  30  31
BRANCH  30  33
ATOM     33  C   UNL     1     -12.413  60.262  33.699  1.00  0.00     0.187 C 
BRANCH  33  34
ATOM     34  O   UNL     1     -12.545  59.048  34.441  1.00  0.00    -0.394 OA
ATOM     35  H   UNL     1     -11.670  58.905  34.860  1.00  0.00     0.210 HD
ENDBRANCH  33  34
ENDBRANCH  30  33
ENDBRANCH  29  30
ENDBRANCH  26  29
ENDBRANCH   1  26
TORSDOF 11
ENDMDL
MODEL 20
REMARK minimizedAffinity -7.43233252
REMARK minimizedRMSD -1
REMARK SMILES COc1cc(F)c(F)c(Nc2ccc(I)cc2F)c1NS(=O)(=O)C1(C[C@H](O)CO)CC1
REMARK SMILES IDX 21 1 22 2 23 3 20 4 19 6 3 7 4 8 5 9 9 10 7 11 6 12 8 13
REMARK SMILES IDX 2 14 1 15 10 16 11 18 12 19 17 20 13 21 16 22 14 23 18 24
REMARK SMILES IDX 15 25 24 26 30 27 31 28 25 29 26 30 27 31 28 33 29 34
REMARK H PARENT 20 5 10 17 27 32 29 35
ROOT
ATOM      1  S   UNL     1      -8.878  62.011  34.500  1.00  0.00     0.238 S 
ATOM      2  O   UNL     1      -7.558  62.333  35.006  1.00  0.00    -0.206 OA
ATOM      3  O   UNL     1     -10.032  62.182  35.359  1.00  0.00    -0.206 OA
ENDROOT
BRANCH   1   4
ATOM      4  N   UNL     1      -9.162  62.914  33.082  1.00  0.00    -0.277 N 
ATOM      5  H   UNL     1      -9.279  62.230  32.312  1.00  0.00     0.180 HD
BRANCH   4   6
ATOM      6  C   UNL     1     -10.311  63.783  33.172  1.00  0.00     0.117 A 
ATOM      7  C   UNL     1     -11.487  63.485  32.456  1.00  0.00     0.148 A 
ATOM      8  C   UNL     1     -12.557  64.382  32.472  1.00  0.00     0.091 A 
ATOM      9  C   UNL     1     -12.436  65.577  33.175  1.00  0.00     0.164 A 
ATOM     10  C   UNL     1     -10.196  64.989  33.892  1.00  0.00     0.106 A 
ATOM     11  C   UNL     1     -11.274  65.881  33.876  1.00  0.00     0.184 A 
ATOM     12  F   UNL     1     -13.468  66.434  33.188  1.00  0.00    -0.204 F 
ATOM     13  F   UNL     1     -11.189  67.040  34.548  1.00  0.00    -0.201 F 
BRANCH   7  14
ATOM     14  O   UNL     1     -11.563  62.261  31.839  1.00  0.00    -0.494 OA
ATOM     15  C   UNL     1     -12.368  61.303  32.524  1.00  0.00     0.278 C 
ENDBRANCH   7  14
BRANCH  10  16
ATOM     16  N   UNL     1      -9.000  65.281  34.603  1.00  0.00    -0.349 N 
ATOM     17  H   UNL     1      -8.413  64.442  34.641  1.00  0.00     0.167 HD
BRANCH  16  18
ATOM     18  C   UNL     1      -8.169  66.405  34.346  1.00  0.00     0.075 A 
ATOM     19  C   UNL     1      -7.530  66.593  33.114  1.00  0.00     0.030 A 
ATOM     20  C   UNL     1      -8.090  67.439  35.292  1.00  0.00     0.147 A 
ATOM     21  C   UNL     1      -6.788  67.756  32.866  1.00  0.00     0.017 A 
ATOM     22  C   UNL     1      -7.354  68.598  35.061  1.00  0.00     0.056 A 
ATOM     23  C   UNL     1      -6.700  68.751  33.842  1.00  0.00     0.016 A 
ATOM     24  F   UNL     1      -8.734  67.308  36.464  1.00  0.00    -0.205 F 
ATOM     25  I   UNL     1      -5.606  70.476  33.465  1.00  0.00    -0.044 I 
ENDBRANCH  16  18
ENDBRANCH  10  16
ENDBRANCH   4   6
ENDBRANCH   1   4
BRANCH   1  26
ATOM     26  C   UNL     1      -8.845  60.246  33.991  1.00  0.00     0.094 C 
ATOM     27  C   UNL     1      -7.556  59.840  33.291  1.00  0.00     0.027 C 
ATOM     28  C   UNL     1      -8.813  60.013  32.493  1.00  0.00     0.027 C 
BRANCH  26  29
ATOM     29  C   UNL     1      -9.472  59.303  34.979  1.00  0.00     0.059 C 
BRANCH  29  30
ATOM     30  C   UNL     1     -10.424  58.228  34.424  1.00  0.00     0.141 C 
BRANCH  30  31
ATOM     31  O   UNL     1     -11.688  58.311  35.101  1.00  0.00    -0.391 OA
ATOM     32  H   UNL     1     -12.338  57.835  34.551  1.00  0.00     0.211 HD
ENDBRANCH  30  31
BRANCH  30  33
ATOM     33  C   UNL     1      -9.937  56.779  34.493  1.00  0.00     0.187 C 
BRANCH  33  34
ATOM     34  O   UNL     1     -10.495  56.120  35.632  1.00  0.00    -0.394 OA
ATOM     35  H   UNL     1     -11.438  56.389  35.650  1.00  0.00     0.210 HD
ENDBRANCH  33  34
ENDBRANCH  30  33
ENDBRANCH  29  30
ENDBRANCH  26  29
ENDBRANCH   1  26
TORSDOF 11
ENDMDL
