MODEL 1
REMARK minimizedAffinity -7.89287853
REMARK minimizedRMSD -1
REMARK SMILES Cn1cnc2c(F)c(Nc3ccc(Br)cc3Cl)c(C(=O)NOCCO)cc21
REMARK SMILES IDX 19 1 20 2 21 3 18 5 2 6 3 7 27 8 4 9 26 10 5 11 6 12 8 13
REMARK SMILES IDX 1 14 7 15 9 16 10 18 11 19 16 20 12 21 15 22 13 23 17 24
REMARK SMILES IDX 14 25 22 26 23 27 24 28 25 29
REMARK H PARENT 21 4 9 17 25 30
ROOT
ATOM      1  C   UNL     1      -8.175  56.017  32.777  1.00  0.00     0.277 C 
ATOM      2  O   UNL     1      -8.329  55.634  33.932  1.00  0.00    -0.267 OA
ATOM      3  N   UNL     1      -8.489  57.282  32.311  1.00  0.00    -0.231 N 
ATOM      4  H   UNL     1      -8.747  57.378  31.334  1.00  0.00     0.199 HD
ENDROOT
BRANCH   1   5
ATOM      5  C   UNL     1      -7.634  55.077  31.752  1.00  0.00     0.070 A 
ATOM      6  N   UNL     1      -8.373  53.440  28.470  1.00  0.00    -0.334 N 
ATOM      7  C   UNL     1      -7.432  52.600  27.950  1.00  0.00     0.200 A 
ATOM      8  C   UNL     1      -7.903  53.922  29.668  1.00  0.00     0.072 A 
ATOM      9  N   UNL     1      -6.382  52.513  28.731  1.00  0.00    -0.234 NA
ATOM     10  C   UNL     1      -8.429  54.803  30.617  1.00  0.00     0.045 A 
ATOM     11  C   UNL     1      -6.649  53.333  29.805  1.00  0.00     0.126 A 
ATOM     12  C   UNL     1      -5.868  53.636  30.938  1.00  0.00     0.175 A 
ATOM     13  C   UNL     1      -6.344  54.515  31.932  1.00  0.00     0.090 A 
ATOM     14  C   UNL     1      -9.637  53.763  27.855  1.00  0.00     0.151 C 
ATOM     15  F   UNL     1      -4.636  53.110  31.028  1.00  0.00    -0.202 F 
BRANCH  13  16
ATOM     16  N   UNL     1      -5.620  54.799  33.116  1.00  0.00    -0.351 N 
ATOM     17  H   UNL     1      -6.204  54.755  33.963  1.00  0.00     0.167 HD
BRANCH  16  18
ATOM     18  C   UNL     1      -4.291  55.185  33.382  1.00  0.00     0.057 A 
ATOM     19  C   UNL     1      -3.334  54.286  33.871  1.00  0.00     0.029 A 
ATOM     20  C   UNL     1      -3.875  56.512  33.137  1.00  0.00     0.065 A 
ATOM     21  C   UNL     1      -2.014  54.689  34.106  1.00  0.00     0.018 A 
ATOM     22  C   UNL     1      -2.560  56.922  33.370  1.00  0.00     0.038 A 
ATOM     23  C   UNL     1      -1.635  56.004  33.854  1.00  0.00     0.019 A 
ATOM     24  Cl  UNL     1      -4.993  57.690  32.535  1.00  0.00    -0.082 Cl
ATOM     25  Br  UNL     1       0.148  56.544  34.177  1.00  0.00    -0.051 Br
ENDBRANCH  16  18
ENDBRANCH  13  16
ENDBRANCH   1   5
BRANCH   3  26
ATOM     26  O   UNL     1      -9.325  58.011  33.197  1.00  0.00    -0.271 OA
BRANCH  26  27
ATOM     27  C   UNL     1      -9.377  59.374  32.753  1.00  0.00     0.222 C 
BRANCH  27  28
ATOM     28  C   UNL     1      -7.949  59.882  32.611  1.00  0.00     0.187 C 
BRANCH  28  29
ATOM     29  O   UNL     1      -7.556  59.873  31.238  1.00  0.00    -0.394 OA
ATOM     30  H   UNL     1      -8.202  60.438  30.775  1.00  0.00     0.210 HD
ENDBRANCH  28  29
ENDBRANCH  27  28
ENDBRANCH  26  27
ENDBRANCH   3  26
TORSDOF 7
ENDMDL
MODEL 2
REMARK minimizedAffinity -7.72710228
REMARK minimizedRMSD -1
REMARK SMILES Cn1cnc2c(F)c(Nc3ccc(Br)cc3Cl)c(C(=O)NOCCO)cc21
REMARK SMILES IDX 19 1 20 2 21 3 18 5 2 6 3 7 27 8 4 9 26 10 5 11 6 12 8 13
REMARK SMILES IDX 1 14 7 15 9 16 10 18 11 19 16 20 12 21 15 22 13 23 17 24
REMARK SMILES IDX 14 25 22 26 23 27 24 28 25 29
REMARK H PARENT 21 4 9 17 25 30
ROOT
ATOM      1  C   UNL     1      -9.253  67.640  33.460  1.00  0.00     0.277 C 
ATOM      2  O   UNL     1      -9.666  67.313  32.351  1.00  0.00    -0.267 OA
ATOM      3  N   UNL     1      -9.956  68.401  34.376  1.00  0.00    -0.231 N 
ATOM      4  H   UNL     1      -9.426  68.973  35.026  1.00  0.00     0.199 HD
ENDROOT
BRANCH   1   5
ATOM      5  C   UNL     1      -7.884  67.231  33.888  1.00  0.00     0.070 A 
ATOM      6  N   UNL     1      -4.419  68.491  34.523  1.00  0.00    -0.334 N 
ATOM      7  C   UNL     1      -3.480  67.594  34.944  1.00  0.00     0.200 A 
ATOM      8  C   UNL     1      -5.606  67.821  34.348  1.00  0.00     0.072 A 
ATOM      9  N   UNL     1      -3.986  66.389  35.058  1.00  0.00    -0.234 NA
ATOM     10  C   UNL     1      -6.881  68.225  33.942  1.00  0.00     0.045 A 
ATOM     11  C   UNL     1      -5.311  66.506  34.699  1.00  0.00     0.126 A 
ATOM     12  C   UNL     1      -6.333  65.538  34.653  1.00  0.00     0.175 A 
ATOM     13  C   UNL     1      -7.638  65.881  34.248  1.00  0.00     0.090 A 
ATOM     14  C   UNL     1      -4.192  69.899  34.309  1.00  0.00     0.151 C 
ATOM     15  F   UNL     1      -6.050  64.287  35.051  1.00  0.00    -0.202 F 
BRANCH  13  16
ATOM     16  N   UNL     1      -8.680  64.928  34.128  1.00  0.00    -0.351 N 
ATOM     17  H   UNL     1      -9.606  65.316  34.356  1.00  0.00     0.167 HD
BRANCH  16  18
ATOM     18  C   UNL     1      -8.720  63.554  33.819  1.00  0.00     0.057 A 
ATOM     19  C   UNL     1      -8.711  63.082  32.500  1.00  0.00     0.029 A 
ATOM     20  C   UNL     1      -8.747  62.595  34.855  1.00  0.00     0.065 A 
ATOM     21  C   UNL     1      -8.728  61.710  32.221  1.00  0.00     0.018 A 
ATOM     22  C   UNL     1      -8.766  61.225  34.585  1.00  0.00     0.038 A 
ATOM     23  C   UNL     1      -8.754  60.790  33.264  1.00  0.00     0.019 A 
ATOM     24  Cl  UNL     1      -8.763  63.090  36.515  1.00  0.00    -0.082 Cl
ATOM     25  Br  UNL     1      -8.782  58.939  32.882  1.00  0.00    -0.051 Br
ENDBRANCH  16  18
ENDBRANCH  13  16
ENDBRANCH   1   5
BRANCH   3  26
ATOM     26  O   UNL     1     -11.072  69.069  33.808  1.00  0.00    -0.271 OA
BRANCH  26  27
ATOM     27  C   UNL     1     -12.259  68.623  34.480  1.00  0.00     0.222 C 
BRANCH  27  28
ATOM     28  C   UNL     1     -13.220  68.076  33.432  1.00  0.00     0.187 C 
BRANCH  28  29
ATOM     29  O   UNL     1     -12.497  67.392  32.409  1.00  0.00    -0.394 OA
ATOM     30  H   UNL     1     -11.999  66.686  32.863  1.00  0.00     0.210 HD
ENDBRANCH  28  29
ENDBRANCH  27  28
ENDBRANCH  26  27
ENDBRANCH   3  26
TORSDOF 7
ENDMDL
MODEL 3
REMARK minimizedAffinity -7.67275953
REMARK minimizedRMSD -1
REMARK SMILES Cn1cnc2c(F)c(Nc3ccc(Br)cc3Cl)c(C(=O)NOCCO)cc21
REMARK SMILES IDX 19 1 20 2 21 3 18 5 2 6 3 7 27 8 4 9 26 10 5 11 6 12 8 13
REMARK SMILES IDX 1 14 7 15 9 16 10 18 11 19 16 20 12 21 15 22 13 23 17 24
REMARK SMILES IDX 14 25 22 26 23 27 24 28 25 29
REMARK H PARENT 21 4 9 17 25 30
ROOT
ATOM      1  C   UNL     1     -11.607  68.109  33.335  1.00  0.00     0.277 C 
ATOM      2  O   UNL     1     -11.312  68.985  34.142  1.00  0.00    -0.267 OA
ATOM      3  N   UNL     1     -12.762  68.088  32.574  1.00  0.00    -0.231 N 
ATOM      4  H   UNL     1     -13.131  67.185  32.294  1.00  0.00     0.199 HD
ENDROOT
BRANCH   1   5
ATOM      5  C   UNL     1     -10.697  66.943  33.144  1.00  0.00     0.070 A 
ATOM      6  N   UNL     1     -10.581  63.211  32.910  1.00  0.00    -0.334 N 
ATOM      7  C   UNL     1      -9.368  62.621  32.705  1.00  0.00     0.200 A 
ATOM      8  C   UNL     1     -10.394  64.571  32.968  1.00  0.00     0.072 A 
ATOM      9  N   UNL     1      -8.409  63.513  32.620  1.00  0.00    -0.234 NA
ATOM     10  C   UNL     1     -11.264  65.650  33.151  1.00  0.00     0.045 A 
ATOM     11  C   UNL     1      -9.025  64.736  32.774  1.00  0.00     0.126 A 
ATOM     12  C   UNL     1      -8.486  66.038  32.753  1.00  0.00     0.175 A 
ATOM     13  C   UNL     1      -9.311  67.166  32.936  1.00  0.00     0.090 A 
ATOM     14  C   UNL     1     -11.838  62.514  33.037  1.00  0.00     0.151 C 
ATOM     15  F   UNL     1      -7.175  66.186  32.505  1.00  0.00    -0.202 F 
BRANCH  13  16
ATOM     16  N   UNL     1      -8.804  68.488  32.985  1.00  0.00    -0.351 N 
ATOM     17  H   UNL     1      -9.456  69.181  32.593  1.00  0.00     0.167 HD
BRANCH  16  18
ATOM     18  C   UNL     1      -7.581  69.053  33.398  1.00  0.00     0.057 A 
ATOM     19  C   UNL     1      -6.785  69.826  32.542  1.00  0.00     0.029 A 
ATOM     20  C   UNL     1      -7.128  68.871  34.723  1.00  0.00     0.065 A 
ATOM     21  C   UNL     1      -5.586  70.395  32.985  1.00  0.00     0.018 A 
ATOM     22  C   UNL     1      -5.932  69.436  35.172  1.00  0.00     0.038 A 
ATOM     23  C   UNL     1      -5.166  70.198  34.297  1.00  0.00     0.019 A 
ATOM     24  Cl  UNL     1      -8.047  67.928  35.848  1.00  0.00    -0.082 Cl
ATOM     25  Br  UNL     1      -3.544  70.966  34.889  1.00  0.00    -0.051 Br
ENDBRANCH  16  18
ENDBRANCH  13  16
ENDBRANCH   1   5
BRANCH   3  26
ATOM     26  O   UNL     1     -13.754  68.990  33.039  1.00  0.00    -0.271 OA
BRANCH  26  27
ATOM     27  C   UNL     1     -14.853  68.230  33.558  1.00  0.00     0.222 C 
BRANCH  27  28
ATOM     28  C   UNL     1     -15.671  67.714  32.381  1.00  0.00     0.187 C 
BRANCH  28  29
ATOM     29  O   UNL     1     -15.334  68.433  31.194  1.00  0.00    -0.394 OA
ATOM     30  H   UNL     1     -14.376  68.302  31.069  1.00  0.00     0.210 HD
ENDBRANCH  28  29
ENDBRANCH  27  28
ENDBRANCH  26  27
ENDBRANCH   3  26
TORSDOF 7
ENDMDL
MODEL 4
REMARK minimizedAffinity -7.64618731
REMARK minimizedRMSD -1
REMARK SMILES Cn1cnc2c(F)c(Nc3ccc(Br)cc3Cl)c(C(=O)NOCCO)cc21
REMARK SMILES IDX 19 1 20 2 21 3 18 5 2 6 3 7 27 8 4 9 26 10 5 11 6 12 8 13
REMARK SMILES IDX 1 14 7 15 9 16 10 18 11 19 16 20 12 21 15 22 13 23 17 24
REMARK SMILES IDX 14 25 22 26 23 27 24 28 25 29
REMARK H PARENT 21 4 9 17 25 30
ROOT
ATOM      1  C   UNL     1      -7.089  57.911  32.727  1.00  0.00     0.277 C 
ATOM      2  O   UNL     1      -8.051  57.431  33.318  1.00  0.00    -0.267 OA
ATOM      3  N   UNL     1      -7.108  59.090  32.004  1.00  0.00    -0.231 N 
ATOM      4  H   UNL     1      -6.461  59.183  31.227  1.00  0.00     0.199 HD
ENDROOT
BRANCH   1   5
ATOM      5  C   UNL     1      -5.782  57.192  32.737  1.00  0.00     0.070 A 
ATOM      6  N   UNL     1      -2.350  57.189  34.228  1.00  0.00    -0.334 N 
ATOM      7  C   UNL     1      -1.489  56.202  33.846  1.00  0.00     0.200 A 
ATOM      8  C   UNL     1      -3.538  57.004  33.563  1.00  0.00     0.072 A 
ATOM      9  N   UNL     1      -2.046  55.388  32.981  1.00  0.00    -0.234 NA
ATOM     10  C   UNL     1      -4.754  57.694  33.566  1.00  0.00     0.045 A 
ATOM     11  C   UNL     1      -3.325  55.863  32.794  1.00  0.00     0.126 A 
ATOM     12  C   UNL     1      -4.373  55.372  31.989  1.00  0.00     0.175 A 
ATOM     13  C   UNL     1      -5.620  56.025  31.946  1.00  0.00     0.090 A 
ATOM     14  C   UNL     1      -2.054  58.237  35.174  1.00  0.00     0.151 C 
ATOM     15  F   UNL     1      -4.174  54.237  31.300  1.00  0.00    -0.202 F 
BRANCH  13  16
ATOM     16  N   UNL     1      -6.679  55.603  31.105  1.00  0.00    -0.351 N 
ATOM     17  H   UNL     1      -7.169  56.388  30.653  1.00  0.00     0.167 HD
BRANCH  16  18
ATOM     18  C   UNL     1      -7.245  54.350  30.796  1.00  0.00     0.057 A 
ATOM     19  C   UNL     1      -7.309  53.859  29.485  1.00  0.00     0.029 A 
ATOM     20  C   UNL     1      -7.752  53.527  31.826  1.00  0.00     0.065 A 
ATOM     21  C   UNL     1      -7.856  52.601  29.208  1.00  0.00     0.018 A 
ATOM     22  C   UNL     1      -8.300  52.271  31.557  1.00  0.00     0.038 A 
ATOM     23  C   UNL     1      -8.347  51.814  30.245  1.00  0.00     0.019 A 
ATOM     24  Cl  UNL     1      -7.715  54.055  33.475  1.00  0.00    -0.082 Cl
ATOM     25  Br  UNL     1      -9.088  50.117  29.865  1.00  0.00    -0.051 Br
ENDBRANCH  16  18
ENDBRANCH  13  16
ENDBRANCH   1   5
BRANCH   3  26
ATOM     26  O   UNL     1      -8.421  59.543  31.710  1.00  0.00    -0.271 OA
BRANCH  26  27
ATOM     27  C   UNL     1      -8.520  60.923  32.089  1.00  0.00     0.222 C 
BRANCH  27  28
ATOM     28  C   UNL     1      -8.751  60.987  33.594  1.00  0.00     0.187 C 
BRANCH  28  29
ATOM     29  O   UNL     1      -7.504  61.105  34.279  1.00  0.00    -0.394 OA
ATOM     30  H   UNL     1      -7.086  61.914  33.931  1.00  0.00     0.210 HD
ENDBRANCH  28  29
ENDBRANCH  27  28
ENDBRANCH  26  27
ENDBRANCH   3  26
TORSDOF 7
ENDMDL
MODEL 5
REMARK minimizedAffinity -7.64520359
REMARK minimizedRMSD -1
REMARK SMILES Cn1cnc2c(F)c(Nc3ccc(Br)cc3Cl)c(C(=O)NOCCO)cc21
REMARK SMILES IDX 19 1 20 2 21 3 18 5 2 6 3 7 27 8 4 9 26 10 5 11 6 12 8 13
REMARK SMILES IDX 1 14 7 15 9 16 10 18 11 19 16 20 12 21 15 22 13 23 17 24
REMARK SMILES IDX 14 25 22 26 23 27 24 28 25 29
REMARK H PARENT 21 4 9 17 25 30
ROOT
ATOM      1  C   UNL     1      -7.012  57.771  32.651  1.00  0.00     0.277 C 
ATOM      2  O   UNL     1      -7.988  57.127  33.023  1.00  0.00    -0.267 OA
ATOM      3  N   UNL     1      -7.059  59.045  32.114  1.00  0.00    -0.231 N 
ATOM      4  H   UNL     1      -6.332  59.313  31.459  1.00  0.00     0.199 HD
ENDROOT
BRANCH   1   5
ATOM      5  C   UNL     1      -5.650  57.168  32.741  1.00  0.00     0.070 A 
ATOM      6  N   UNL     1      -2.359  57.396  34.506  1.00  0.00    -0.334 N 
ATOM      7  C   UNL     1      -1.386  56.505  34.158  1.00  0.00     0.200 A 
ATOM      8  C   UNL     1      -3.471  57.138  33.739  1.00  0.00     0.072 A 
ATOM      9  N   UNL     1      -1.798  55.685  33.221  1.00  0.00    -0.234 NA
ATOM     10  C   UNL     1      -4.740  57.720  33.669  1.00  0.00     0.045 A 
ATOM     11  C   UNL     1      -3.096  56.056  32.948  1.00  0.00     0.126 A 
ATOM     12  C   UNL     1      -4.029  55.513  32.042  1.00  0.00     0.175 A 
ATOM     13  C   UNL     1      -5.324  56.057  31.922  1.00  0.00     0.090 A 
ATOM     14  C   UNL     1      -2.233  58.422  35.512  1.00  0.00     0.151 C 
ATOM     15  F   UNL     1      -3.676  54.431  31.328  1.00  0.00    -0.202 F 
BRANCH  13  16
ATOM     16  N   UNL     1      -6.271  55.583  30.982  1.00  0.00    -0.351 N 
ATOM     17  H   UNL     1      -6.560  56.304  30.306  1.00  0.00     0.167 HD
BRANCH  16  18
ATOM     18  C   UNL     1      -6.947  54.359  30.804  1.00  0.00     0.057 A 
ATOM     19  C   UNL     1      -8.068  54.005  31.565  1.00  0.00     0.029 A 
ATOM     20  C   UNL     1      -6.515  53.448  29.815  1.00  0.00     0.065 A 
ATOM     21  C   UNL     1      -8.735  52.792  31.353  1.00  0.00     0.018 A 
ATOM     22  C   UNL     1      -7.174  52.235  29.598  1.00  0.00     0.038 A 
ATOM     23  C   UNL     1      -8.285  51.915  30.371  1.00  0.00     0.019 A 
ATOM     24  Cl  UNL     1      -5.136  53.804  28.830  1.00  0.00    -0.082 Cl
ATOM     25  Br  UNL     1      -9.187  50.277  30.091  1.00  0.00    -0.051 Br
ENDBRANCH  16  18
ENDBRANCH  13  16
ENDBRANCH   1   5
BRANCH   3  26
ATOM     26  O   UNL     1      -8.363  59.431  31.708  1.00  0.00    -0.271 OA
BRANCH  26  27
ATOM     27  C   UNL     1      -8.597  60.777  32.147  1.00  0.00     0.222 C 
BRANCH  27  28
ATOM     28  C   UNL     1      -8.689  60.770  33.667  1.00  0.00     0.187 C 
BRANCH  28  29
ATOM     29  O   UNL     1      -7.494  61.306  34.236  1.00  0.00    -0.394 OA
ATOM     30  H   UNL     1      -7.408  62.207  33.871  1.00  0.00     0.210 HD
ENDBRANCH  28  29
ENDBRANCH  27  28
ENDBRANCH  26  27
ENDBRANCH   3  26
TORSDOF 7
ENDMDL
MODEL 6
REMARK minimizedAffinity -7.60237122
REMARK minimizedRMSD -1
REMARK SMILES Cn1cnc2c(F)c(Nc3ccc(Br)cc3Cl)c(C(=O)NOCCO)cc21
REMARK SMILES IDX 19 1 20 2 21 3 18 5 2 6 3 7 27 8 4 9 26 10 5 11 6 12 8 13
REMARK SMILES IDX 1 14 7 15 9 16 10 18 11 19 16 20 12 21 15 22 13 23 17 24
REMARK SMILES IDX 14 25 22 26 23 27 24 28 25 29
REMARK H PARENT 21 4 9 17 25 30
ROOT
ATOM      1  C   UNL     1      -4.925  57.522  33.310  1.00  0.00     0.277 C 
ATOM      2  O   UNL     1      -5.336  57.573  32.155  1.00  0.00    -0.267 OA
ATOM      3  N   UNL     1      -5.654  57.881  34.430  1.00  0.00    -0.231 N 
ATOM      4  H   UNL     1      -5.146  58.223  35.239  1.00  0.00     0.199 HD
ENDROOT
BRANCH   1   5
ATOM      5  C   UNL     1      -3.529  57.068  33.578  1.00  0.00     0.070 A 
ATOM      6  N   UNL     1      -0.089  58.247  34.456  1.00  0.00    -0.334 N 
ATOM      7  C   UNL     1       0.892  57.308  34.592  1.00  0.00     0.200 A 
ATOM      8  C   UNL     1      -1.258  57.602  34.131  1.00  0.00     0.072 A 
ATOM      9  N   UNL     1       0.431  56.098  34.382  1.00  0.00    -0.234 NA
ATOM     10  C   UNL     1      -2.559  58.049  33.881  1.00  0.00     0.045 A 
ATOM     11  C   UNL     1      -0.908  56.255  34.099  1.00  0.00     0.126 A 
ATOM     12  C   UNL     1      -1.899  55.295  33.811  1.00  0.00     0.175 A 
ATOM     13  C   UNL     1      -3.227  55.682  33.547  1.00  0.00     0.090 A 
ATOM     14  C   UNL     1       0.084  59.668  34.632  1.00  0.00     0.151 C 
ATOM     15  F   UNL     1      -1.561  53.995  33.844  1.00  0.00    -0.202 F 
BRANCH  13  16
ATOM     16  N   UNL     1      -4.240  54.757  33.193  1.00  0.00    -0.351 N 
ATOM     17  H   UNL     1      -4.854  54.513  33.983  1.00  0.00     0.167 HD
BRANCH  16  18
ATOM     18  C   UNL     1      -4.557  54.056  32.013  1.00  0.00     0.057 A 
ATOM     19  C   UNL     1      -3.989  54.379  30.773  1.00  0.00     0.029 A 
ATOM     20  C   UNL     1      -5.459  52.969  32.054  1.00  0.00     0.065 A 
ATOM     21  C   UNL     1      -4.304  53.651  29.620  1.00  0.00     0.018 A 
ATOM     22  C   UNL     1      -5.779  52.239  30.906  1.00  0.00     0.038 A 
ATOM     23  C   UNL     1      -5.195  52.586  29.692  1.00  0.00     0.019 A 
ATOM     24  Cl  UNL     1      -6.210  52.502  33.543  1.00  0.00    -0.082 Cl
ATOM     25  Br  UNL     1      -5.620  51.609  28.131  1.00  0.00    -0.051 Br
ENDBRANCH  16  18
ENDBRANCH  13  16
ENDBRANCH   1   5
BRANCH   3  26
ATOM     26  O   UNL     1      -6.813  58.640  34.121  1.00  0.00    -0.271 OA
BRANCH  26  27
ATOM     27  C   UNL     1      -7.965  57.912  34.569  1.00  0.00     0.222 C 
BRANCH  27  28
ATOM     28  C   UNL     1      -8.825  57.589  33.354  1.00  0.00     0.187 C 
BRANCH  28  29
ATOM     29  O   UNL     1      -8.186  58.049  32.162  1.00  0.00    -0.394 OA
ATOM     30  H   UNL     1      -7.320  57.601  32.137  1.00  0.00     0.210 HD
ENDBRANCH  28  29
ENDBRANCH  27  28
ENDBRANCH  26  27
ENDBRANCH   3  26
TORSDOF 7
ENDMDL
MODEL 7
REMARK minimizedAffinity -7.51032448
REMARK minimizedRMSD -1
REMARK SMILES Cn1cnc2c(F)c(Nc3ccc(Br)cc3Cl)c(C(=O)NOCCO)cc21
REMARK SMILES IDX 19 1 20 2 21 3 18 5 2 6 3 7 27 8 4 9 26 10 5 11 6 12 8 13
REMARK SMILES IDX 1 14 7 15 9 16 10 18 11 19 16 20 12 21 15 22 13 23 17 24
REMARK SMILES IDX 14 25 22 26 23 27 24 28 25 29
REMARK H PARENT 21 4 9 17 25 30
ROOT
ATOM      1  C   UNL     1      -6.378  58.212  33.013  1.00  0.00     0.277 C 
ATOM      2  O   UNL     1      -6.709  58.850  32.019  1.00  0.00    -0.267 OA
ATOM      3  N   UNL     1      -7.063  58.202  34.215  1.00  0.00    -0.231 N 
ATOM      4  H   UNL     1      -6.532  58.036  35.064  1.00  0.00     0.199 HD
ENDROOT
BRANCH   1   5
ATOM      5  C   UNL     1      -5.136  57.387  32.982  1.00  0.00     0.070 A 
ATOM      6  N   UNL     1      -1.686  57.073  34.395  1.00  0.00    -0.334 N 
ATOM      7  C   UNL     1      -0.918  56.026  33.977  1.00  0.00     0.200 A 
ATOM      8  C   UNL     1      -2.899  56.999  33.754  1.00  0.00     0.072 A 
ATOM      9  N   UNL     1      -1.558  55.277  33.111  1.00  0.00    -0.234 NA
ATOM     10  C   UNL     1      -4.053  57.787  33.796  1.00  0.00     0.045 A 
ATOM     11  C   UNL     1      -2.797  55.859  32.960  1.00  0.00     0.126 A 
ATOM     12  C   UNL     1      -3.898  55.472  32.171  1.00  0.00     0.175 A 
ATOM     13  C   UNL     1      -5.088  56.227  32.167  1.00  0.00     0.090 A 
ATOM     14  C   UNL     1      -1.284  58.074  35.352  1.00  0.00     0.151 C 
ATOM     15  F   UNL     1      -3.809  54.337  31.458  1.00  0.00    -0.202 F 
BRANCH  13  16
ATOM     16  N   UNL     1      -6.196  55.909  31.343  1.00  0.00    -0.351 N 
ATOM     17  H   UNL     1      -6.611  56.737  30.894  1.00  0.00     0.167 HD
BRANCH  16  18
ATOM     18  C   UNL     1      -6.887  54.718  31.047  1.00  0.00     0.057 A 
ATOM     19  C   UNL     1      -6.777  54.075  29.807  1.00  0.00     0.029 A 
ATOM     20  C   UNL     1      -7.711  54.115  32.023  1.00  0.00     0.065 A 
ATOM     21  C   UNL     1      -7.457  52.880  29.547  1.00  0.00     0.018 A 
ATOM     22  C   UNL     1      -8.393  52.922  31.771  1.00  0.00     0.038 A 
ATOM     23  C   UNL     1      -8.260  52.310  30.530  1.00  0.00     0.019 A 
ATOM     24  Cl  UNL     1      -7.907  54.842  33.583  1.00  0.00    -0.082 Cl
ATOM     25  Br  UNL     1      -9.180  50.697  30.172  1.00  0.00    -0.051 Br
ENDBRANCH  16  18
ENDBRANCH  13  16
ENDBRANCH   1   5
BRANCH   3  26
ATOM     26  O   UNL     1      -8.005  59.259  34.329  1.00  0.00    -0.271 OA
BRANCH  26  27
ATOM     27  C   UNL     1      -9.056  58.837  35.210  1.00  0.00     0.222 C 
BRANCH  27  28
ATOM     28  C   UNL     1     -10.280  58.510  34.366  1.00  0.00     0.187 C 
BRANCH  28  29
ATOM     29  O   UNL     1     -11.392  58.203  35.208  1.00  0.00    -0.394 OA
ATOM     30  H   UNL     1     -11.524  58.990  35.769  1.00  0.00     0.210 HD
ENDBRANCH  28  29
ENDBRANCH  27  28
ENDBRANCH  26  27
ENDBRANCH   3  26
TORSDOF 7
ENDMDL
MODEL 8
REMARK minimizedAffinity -7.5054431
REMARK minimizedRMSD -1
REMARK SMILES Cn1cnc2c(F)c(Nc3ccc(Br)cc3Cl)c(C(=O)NOCCO)cc21
REMARK SMILES IDX 19 1 20 2 21 3 18 5 2 6 3 7 27 8 4 9 26 10 5 11 6 12 8 13
REMARK SMILES IDX 1 14 7 15 9 16 10 18 11 19 16 20 12 21 15 22 13 23 17 24
REMARK SMILES IDX 14 25 22 26 23 27 24 28 25 29
REMARK H PARENT 21 4 9 17 25 30
ROOT
ATOM      1  C   UNL     1      -9.293  55.068  31.686  1.00  0.00     0.277 C 
ATOM      2  O   UNL     1      -9.731  54.131  32.346  1.00  0.00    -0.267 OA
ATOM      3  N   UNL     1      -9.286  55.130  30.304  1.00  0.00    -0.231 N 
ATOM      4  H   UNL     1      -8.557  55.675  29.855  1.00  0.00     0.199 HD
ENDROOT
BRANCH   1   5
ATOM      5  C   UNL     1      -8.688  56.242  32.379  1.00  0.00     0.070 A 
ATOM      6  N   UNL     1      -9.168  59.874  33.140  1.00  0.00    -0.334 N 
ATOM      7  C   UNL     1      -8.215  60.500  33.888  1.00  0.00     0.200 A 
ATOM      8  C   UNL     1      -8.794  58.561  32.979  1.00  0.00     0.072 A 
ATOM      9  N   UNL     1      -7.252  59.676  34.227  1.00  0.00    -0.234 NA
ATOM     10  C   UNL     1      -9.376  57.474  32.320  1.00  0.00     0.045 A 
ATOM     11  C   UNL     1      -7.594  58.460  33.678  1.00  0.00     0.126 A 
ATOM     12  C   UNL     1      -6.936  57.215  33.735  1.00  0.00     0.175 A 
ATOM     13  C   UNL     1      -7.471  56.083  33.089  1.00  0.00     0.090 A 
ATOM     14  C   UNL     1     -10.361  60.493  32.618  1.00  0.00     0.151 C 
ATOM     15  F   UNL     1      -5.811  57.117  34.463  1.00  0.00    -0.202 F 
BRANCH  13  16
ATOM     16  N   UNL     1      -6.813  54.828  33.069  1.00  0.00    -0.351 N 
ATOM     17  H   UNL     1      -6.661  54.441  34.011  1.00  0.00     0.167 HD
BRANCH  16  18
ATOM     18  C   UNL     1      -6.271  54.022  32.049  1.00  0.00     0.057 A 
ATOM     19  C   UNL     1      -5.488  54.550  31.014  1.00  0.00     0.029 A 
ATOM     20  C   UNL     1      -6.488  52.627  32.056  1.00  0.00     0.065 A 
ATOM     21  C   UNL     1      -4.942  53.724  30.024  1.00  0.00     0.018 A 
ATOM     22  C   UNL     1      -5.948  51.796  31.071  1.00  0.00     0.038 A 
ATOM     23  C   UNL     1      -5.174  52.353  30.058  1.00  0.00     0.019 A 
ATOM     24  Cl  UNL     1      -7.446  51.890  33.296  1.00  0.00    -0.082 Cl
ATOM     25  Br  UNL     1      -4.438  51.243  28.717  1.00  0.00    -0.051 Br
ENDBRANCH  16  18
ENDBRANCH  13  16
ENDBRANCH   1   5
BRANCH   3  26
ATOM     26  O   UNL     1      -9.520  53.873  29.687  1.00  0.00    -0.271 OA
BRANCH  26  27
ATOM     27  C   UNL     1      -8.453  53.614  28.764  1.00  0.00     0.222 C 
BRANCH  27  28
ATOM     28  C   UNL     1      -8.989  53.812  27.352  1.00  0.00     0.187 C 
BRANCH  28  29
ATOM     29  O   UNL     1     -10.024  54.796  27.351  1.00  0.00    -0.394 OA
ATOM     30  H   UNL     1      -9.620  55.606  27.714  1.00  0.00     0.210 HD
ENDBRANCH  28  29
ENDBRANCH  27  28
ENDBRANCH  26  27
ENDBRANCH   3  26
TORSDOF 7
ENDMDL
MODEL 9
REMARK minimizedAffinity -7.5045867
REMARK minimizedRMSD -1
REMARK SMILES Cn1cnc2c(F)c(Nc3ccc(Br)cc3Cl)c(C(=O)NOCCO)cc21
REMARK SMILES IDX 19 1 20 2 21 3 18 5 2 6 3 7 27 8 4 9 26 10 5 11 6 12 8 13
REMARK SMILES IDX 1 14 7 15 9 16 10 18 11 19 16 20 12 21 15 22 13 23 17 24
REMARK SMILES IDX 14 25 22 26 23 27 24 28 25 29
REMARK H PARENT 21 4 9 17 25 30
ROOT
ATOM      1  C   UNL     1      -8.390  56.092  33.435  1.00  0.00     0.277 C 
ATOM      2  O   UNL     1      -8.152  55.620  34.543  1.00  0.00    -0.267 OA
ATOM      3  N   UNL     1      -9.194  57.192  33.197  1.00  0.00    -0.231 N 
ATOM      4  H   UNL     1      -9.678  57.244  32.307  1.00  0.00     0.199 HD
ENDROOT
BRANCH   1   5
ATOM      5  C   UNL     1      -7.811  55.451  32.219  1.00  0.00     0.070 A 
ATOM      6  N   UNL     1      -8.652  53.441  29.177  1.00  0.00    -0.334 N 
ATOM      7  C   UNL     1      -7.636  53.111  28.329  1.00  0.00     0.200 A 
ATOM      8  C   UNL     1      -8.125  54.167  30.218  1.00  0.00     0.072 A 
ATOM      9  N   UNL     1      -6.486  53.583  28.751  1.00  0.00    -0.234 NA
ATOM     10  C   UNL     1      -8.687  54.759  31.353  1.00  0.00     0.045 A 
ATOM     11  C   UNL     1      -6.767  54.250  29.923  1.00  0.00     0.126 A 
ATOM     12  C   UNL     1      -5.917  54.962  30.794  1.00  0.00     0.175 A 
ATOM     13  C   UNL     1      -6.423  55.577  31.957  1.00  0.00     0.090 A 
ATOM     14  C   UNL     1     -10.039  53.087  28.998  1.00  0.00     0.151 C 
ATOM     15  F   UNL     1      -4.621  55.086  30.466  1.00  0.00    -0.202 F 
BRANCH  13  16
ATOM     16  N   UNL     1      -5.596  56.249  32.891  1.00  0.00    -0.351 N 
ATOM     17  H   UNL     1      -6.103  56.962  33.433  1.00  0.00     0.167 HD
BRANCH  16  18
ATOM     18  C   UNL     1      -4.223  56.194  33.200  1.00  0.00     0.057 A 
ATOM     19  C   UNL     1      -3.393  57.320  33.125  1.00  0.00     0.029 A 
ATOM     20  C   UNL     1      -3.639  54.981  33.625  1.00  0.00     0.065 A 
ATOM     21  C   UNL     1      -2.036  57.244  33.460  1.00  0.00     0.018 A 
ATOM     22  C   UNL     1      -2.285  54.897  33.960  1.00  0.00     0.038 A 
ATOM     23  C   UNL     1      -1.490  56.034  33.876  1.00  0.00     0.019 A 
ATOM     24  Cl  UNL     1      -4.591  53.538  33.744  1.00  0.00    -0.082 Cl
ATOM     25  Br  UNL     1       0.344  55.936  34.323  1.00  0.00    -0.051 Br
ENDBRANCH  16  18
ENDBRANCH  13  16
ENDBRANCH   1   5
BRANCH   3  26
ATOM     26  O   UNL     1     -10.006  57.541  34.308  1.00  0.00    -0.271 OA
BRANCH  26  27
ATOM     27  C   UNL     1      -9.907  58.957  34.517  1.00  0.00     0.222 C 
BRANCH  27  28
ATOM     28  C   UNL     1     -11.176  59.605  33.978  1.00  0.00     0.187 C 
BRANCH  28  29
ATOM     29  O   UNL     1     -12.326  58.896  34.439  1.00  0.00    -0.394 OA
ATOM     30  H   UNL     1     -12.279  58.920  35.413  1.00  0.00     0.210 HD
ENDBRANCH  28  29
ENDBRANCH  27  28
ENDBRANCH  26  27
ENDBRANCH   3  26
TORSDOF 7
ENDMDL
MODEL 10
REMARK minimizedAffinity -7.46339083
REMARK minimizedRMSD -1
REMARK SMILES Cn1cnc2c(F)c(Nc3ccc(Br)cc3Cl)c(C(=O)NOCCO)cc21
REMARK SMILES IDX 19 1 20 2 21 3 18 5 2 6 3 7 27 8 4 9 26 10 5 11 6 12 8 13
REMARK SMILES IDX 1 14 7 15 9 16 10 18 11 19 16 20 12 21 15 22 13 23 17 24
REMARK SMILES IDX 14 25 22 26 23 27 24 28 25 29
REMARK H PARENT 21 4 9 17 25 30
ROOT
ATOM      1  C   UNL     1      -4.456  55.104  32.041  1.00  0.00     0.277 C 
ATOM      2  O   UNL     1      -4.724  56.253  31.704  1.00  0.00    -0.267 OA
ATOM      3  N   UNL     1      -3.306  54.719  32.707  1.00  0.00    -0.231 N 
ATOM      4  H   UNL     1      -2.962  53.776  32.558  1.00  0.00     0.199 HD
ENDROOT
BRANCH   1   5
ATOM      5  C   UNL     1      -5.399  53.997  31.707  1.00  0.00     0.070 A 
ATOM      6  N   UNL     1      -5.908  51.037  29.476  1.00  0.00    -0.334 N 
ATOM      7  C   UNL     1      -7.057  50.316  29.624  1.00  0.00     0.200 A 
ATOM      8  C   UNL     1      -5.929  52.070  30.382  1.00  0.00     0.072 A 
ATOM      9  N   UNL     1      -7.816  50.812  30.572  1.00  0.00    -0.234 NA
ATOM     10  C   UNL     1      -5.033  53.102  30.677  1.00  0.00     0.045 A 
ATOM     11  C   UNL     1      -7.132  51.902  31.063  1.00  0.00     0.126 A 
ATOM     12  C   UNL     1      -7.465  52.799  32.098  1.00  0.00     0.175 A 
ATOM     13  C   UNL     1      -6.605  53.861  32.441  1.00  0.00     0.090 A 
ATOM     14  C   UNL     1      -4.857  50.750  28.531  1.00  0.00     0.151 C 
ATOM     15  F   UNL     1      -8.598  52.590  32.788  1.00  0.00    -0.202 F 
BRANCH  13  16
ATOM     16  N   UNL     1      -6.928  54.821  33.431  1.00  0.00    -0.351 N 
ATOM     17  H   UNL     1      -6.317  54.766  34.258  1.00  0.00     0.167 HD
BRANCH  16  18
ATOM     18  C   UNL     1      -7.938  55.796  33.558  1.00  0.00     0.057 A 
ATOM     19  C   UNL     1      -7.979  56.941  32.751  1.00  0.00     0.029 A 
ATOM     20  C   UNL     1      -8.970  55.629  34.508  1.00  0.00     0.065 A 
ATOM     21  C   UNL     1      -9.006  57.883  32.882  1.00  0.00     0.018 A 
ATOM     22  C   UNL     1      -9.997  56.566  34.645  1.00  0.00     0.038 A 
ATOM     23  C   UNL     1     -10.009  57.691  33.827  1.00  0.00     0.019 A 
ATOM     24  Cl  UNL     1      -8.995  54.245  35.549  1.00  0.00    -0.082 Cl
ATOM     25  Br  UNL     1     -11.391  58.968  34.002  1.00  0.00    -0.051 Br
ENDBRANCH  16  18
ENDBRANCH  13  16
ENDBRANCH   1   5
BRANCH   3  26
ATOM     26  O   UNL     1      -2.288  55.709  32.678  1.00  0.00    -0.271 OA
BRANCH  26  27
ATOM     27  C   UNL     1      -1.745  55.839  33.999  1.00  0.00     0.222 C 
BRANCH  27  28
ATOM     28  C   UNL     1      -0.291  55.384  33.962  1.00  0.00     0.187 C 
BRANCH  28  29
ATOM     29  O   UNL     1      -0.208  54.038  33.492  1.00  0.00    -0.394 OA
ATOM     30  H   UNL     1      -0.622  54.040  32.609  1.00  0.00     0.210 HD
ENDBRANCH  28  29
ENDBRANCH  27  28
ENDBRANCH  26  27
ENDBRANCH   3  26
TORSDOF 7
ENDMDL
MODEL 11
REMARK minimizedAffinity -7.41959333
REMARK minimizedRMSD -1
REMARK SMILES Cn1cnc2c(F)c(Nc3ccc(Br)cc3Cl)c(C(=O)NOCCO)cc21
REMARK SMILES IDX 19 1 20 2 21 3 18 5 2 6 3 7 27 8 4 9 26 10 5 11 6 12 8 13
REMARK SMILES IDX 1 14 7 15 9 16 10 18 11 19 16 20 12 21 15 22 13 23 17 24
REMARK SMILES IDX 14 25 22 26 23 27 24 28 25 29
REMARK H PARENT 21 4 9 17 25 30
ROOT
ATOM      1  C   UNL     1      -9.425  62.196  34.444  1.00  0.00     0.277 C 
ATOM      2  O   UNL     1      -9.196  62.311  35.644  1.00  0.00    -0.267 OA
ATOM      3  N   UNL     1      -8.810  61.286  33.602  1.00  0.00    -0.231 N 
ATOM      4  H   UNL     1      -8.715  61.532  32.622  1.00  0.00     0.199 HD
ENDROOT
BRANCH   1   5
ATOM      5  C   UNL     1     -10.415  63.100  33.790  1.00  0.00     0.070 A 
ATOM      6  N   UNL     1     -13.339  63.190  31.457  1.00  0.00    -0.334 N 
ATOM      7  C   UNL     1     -13.909  64.401  31.196  1.00  0.00     0.200 A 
ATOM      8  C   UNL     1     -12.291  63.387  32.324  1.00  0.00     0.072 A 
ATOM      9  N   UNL     1     -13.302  65.367  31.843  1.00  0.00    -0.234 NA
ATOM     10  C   UNL     1     -11.371  62.522  32.925  1.00  0.00     0.045 A 
ATOM     11  C   UNL     1     -12.294  64.759  32.558  1.00  0.00     0.126 A 
ATOM     12  C   UNL     1     -11.341  65.308  33.439  1.00  0.00     0.175 A 
ATOM     13  C   UNL     1     -10.384  64.490  34.072  1.00  0.00     0.090 A 
ATOM     14  C   UNL     1     -13.774  61.926  30.915  1.00  0.00     0.151 C 
ATOM     15  F   UNL     1     -11.394  66.624  33.703  1.00  0.00    -0.202 F 
BRANCH  13  16
ATOM     16  N   UNL     1      -9.370  65.006  34.916  1.00  0.00    -0.351 N 
ATOM     17  H   UNL     1      -9.288  64.493  35.804  1.00  0.00     0.167 HD
BRANCH  16  18
ATOM     18  C   UNL     1      -8.489  66.102  34.830  1.00  0.00     0.057 A 
ATOM     19  C   UNL     1      -8.649  67.256  35.609  1.00  0.00     0.029 A 
ATOM     20  C   UNL     1      -7.383  66.056  33.954  1.00  0.00     0.065 A 
ATOM     21  C   UNL     1      -7.746  68.321  35.521  1.00  0.00     0.018 A 
ATOM     22  C   UNL     1      -6.477  67.116  33.859  1.00  0.00     0.038 A 
ATOM     23  C   UNL     1      -6.666  68.245  34.648  1.00  0.00     0.019 A 
ATOM     24  Cl  UNL     1      -7.109  64.670  32.951  1.00  0.00    -0.082 Cl
ATOM     25  Br  UNL     1      -5.451  69.689  34.530  1.00  0.00    -0.051 Br
ENDBRANCH  16  18
ENDBRANCH  13  16
ENDBRANCH   1   5
BRANCH   3  26
ATOM     26  O   UNL     1      -7.638  60.712  34.162  1.00  0.00    -0.271 OA
BRANCH  26  27
ATOM     27  C   UNL     1      -7.495  59.380  33.649  1.00  0.00     0.222 C 
BRANCH  27  28
ATOM     28  C   UNL     1      -8.249  59.297  32.328  1.00  0.00     0.187 C 
BRANCH  28  29
ATOM     29  O   UNL     1      -7.460  59.849  31.274  1.00  0.00    -0.394 OA
ATOM     30  H   UNL     1      -6.632  59.333  31.265  1.00  0.00     0.210 HD
ENDBRANCH  28  29
ENDBRANCH  27  28
ENDBRANCH  26  27
ENDBRANCH   3  26
TORSDOF 7
ENDMDL
MODEL 12
REMARK minimizedAffinity -7.40501022
REMARK minimizedRMSD -1
REMARK SMILES Cn1cnc2c(F)c(Nc3ccc(Br)cc3Cl)c(C(=O)NOCCO)cc21
REMARK SMILES IDX 19 1 20 2 21 3 18 5 2 6 3 7 27 8 4 9 26 10 5 11 6 12 8 13
REMARK SMILES IDX 1 14 7 15 9 16 10 18 11 19 16 20 12 21 15 22 13 23 17 24
REMARK SMILES IDX 14 25 22 26 23 27 24 28 25 29
REMARK H PARENT 21 4 9 17 25 30
ROOT
ATOM      1  C   UNL     1      -7.216  64.676  33.371  1.00  0.00     0.277 C 
ATOM      2  O   UNL     1      -7.599  64.210  32.303  1.00  0.00    -0.267 OA
ATOM      3  N   UNL     1      -7.118  63.968  34.556  1.00  0.00    -0.231 N 
ATOM      4  H   UNL     1      -7.227  64.479  35.426  1.00  0.00     0.199 HD
ENDROOT
BRANCH   1   5
ATOM      5  C   UNL     1      -6.840  66.117  33.457  1.00  0.00     0.070 A 
ATOM      6  N   UNL     1      -4.156  68.475  34.567  1.00  0.00    -0.334 N 
ATOM      7  C   UNL     1      -4.362  69.810  34.380  1.00  0.00     0.200 A 
ATOM      8  C   UNL     1      -5.257  67.800  34.097  1.00  0.00     0.072 A 
ATOM      9  N   UNL     1      -5.523  70.042  33.815  1.00  0.00    -0.234 NA
ATOM     10  C   UNL     1      -5.591  66.444  34.028  1.00  0.00     0.045 A 
ATOM     11  C   UNL     1      -6.096  68.804  33.623  1.00  0.00     0.126 A 
ATOM     12  C   UNL     1      -7.330  68.450  33.042  1.00  0.00     0.175 A 
ATOM     13  C   UNL     1      -7.725  67.101  32.946  1.00  0.00     0.090 A 
ATOM     14  C   UNL     1      -2.977  67.885  35.152  1.00  0.00     0.151 C 
ATOM     15  F   UNL     1      -8.103  69.424  32.533  1.00  0.00    -0.202 F 
BRANCH  13  16
ATOM     16  N   UNL     1      -8.982  66.704  32.427  1.00  0.00    -0.351 N 
ATOM     17  H   UNL     1      -8.902  66.170  31.550  1.00  0.00     0.167 HD
BRANCH  16  18
ATOM     18  C   UNL     1     -10.318  66.928  32.816  1.00  0.00     0.057 A 
ATOM     19  C   UNL     1     -10.841  68.216  32.990  1.00  0.00     0.029 A 
ATOM     20  C   UNL     1     -11.189  65.836  33.022  1.00  0.00     0.065 A 
ATOM     21  C   UNL     1     -12.179  68.411  33.354  1.00  0.00     0.018 A 
ATOM     22  C   UNL     1     -12.525  66.023  33.387  1.00  0.00     0.038 A 
ATOM     23  C   UNL     1     -13.013  67.315  33.550  1.00  0.00     0.019 A 
ATOM     24  Cl  UNL     1     -10.625  64.209  32.832  1.00  0.00    -0.082 Cl
ATOM     25  Br  UNL     1     -14.816  67.585  34.047  1.00  0.00    -0.051 Br
ENDBRANCH  16  18
ENDBRANCH  13  16
ENDBRANCH   1   5
BRANCH   3  26
ATOM     26  O   UNL     1      -7.817  62.733  34.528  1.00  0.00    -0.271 OA
BRANCH  26  27
ATOM     27  C   UNL     1      -8.642  62.651  35.698  1.00  0.00     0.222 C 
BRANCH  27  28
ATOM     28  C   UNL     1      -9.034  61.194  35.902  1.00  0.00     0.187 C 
BRANCH  28  29
ATOM     29  O   UNL     1      -8.773  60.797  37.249  1.00  0.00    -0.394 OA
ATOM     30  H   UNL     1      -9.290  61.404  37.809  1.00  0.00     0.210 HD
ENDBRANCH  28  29
ENDBRANCH  27  28
ENDBRANCH  26  27
ENDBRANCH   3  26
TORSDOF 7
ENDMDL
MODEL 13
REMARK minimizedAffinity -7.38955069
REMARK minimizedRMSD -1
REMARK SMILES Cn1cnc2c(F)c(Nc3ccc(Br)cc3Cl)c(C(=O)NOCCO)cc21
REMARK SMILES IDX 19 1 20 2 21 3 18 5 2 6 3 7 27 8 4 9 26 10 5 11 6 12 8 13
REMARK SMILES IDX 1 14 7 15 9 16 10 18 11 19 16 20 12 21 15 22 13 23 17 24
REMARK SMILES IDX 14 25 22 26 23 27 24 28 25 29
REMARK H PARENT 21 4 9 17 25 30
ROOT
ATOM      1  C   UNL     1      -6.123  56.805  32.541  1.00  0.00     0.277 C 
ATOM      2  O   UNL     1      -6.164  56.050  31.575  1.00  0.00    -0.267 OA
ATOM      3  N   UNL     1      -4.967  57.335  33.087  1.00  0.00    -0.231 N 
ATOM      4  H   UNL     1      -4.967  57.559  34.076  1.00  0.00     0.199 HD
ENDROOT
BRANCH   1   5
ATOM      5  C   UNL     1      -7.388  57.191  33.232  1.00  0.00     0.070 A 
ATOM      6  N   UNL     1      -9.629  60.077  34.035  1.00  0.00    -0.334 N 
ATOM      7  C   UNL     1     -10.758  59.826  34.758  1.00  0.00     0.200 A 
ATOM      8  C   UNL     1      -8.958  58.890  33.861  1.00  0.00     0.072 A 
ATOM      9  N   UNL     1     -10.865  58.553  35.056  1.00  0.00    -0.234 NA
ATOM     10  C   UNL     1      -7.768  58.551  33.210  1.00  0.00     0.045 A 
ATOM     11  C   UNL     1      -9.758  57.948  34.502  1.00  0.00     0.126 A 
ATOM     12  C   UNL     1      -9.365  56.595  34.494  1.00  0.00     0.175 A 
ATOM     13  C   UNL     1      -8.174  56.190  33.858  1.00  0.00     0.090 A 
ATOM     14  C   UNL     1      -9.223  61.369  33.541  1.00  0.00     0.151 C 
ATOM     15  F   UNL     1     -10.175  55.688  35.064  1.00  0.00    -0.202 F 
BRANCH  13  16
ATOM     16  N   UNL     1      -7.710  54.852  33.879  1.00  0.00    -0.351 N 
ATOM     17  H   UNL     1      -6.941  54.705  34.548  1.00  0.00     0.167 HD
BRANCH  16  18
ATOM     18  C   UNL     1      -8.030  53.692  33.146  1.00  0.00     0.057 A 
ATOM     19  C   UNL     1      -9.340  53.396  32.748  1.00  0.00     0.029 A 
ATOM     20  C   UNL     1      -7.013  52.790  32.765  1.00  0.00     0.065 A 
ATOM     21  C   UNL     1      -9.629  52.248  32.000  1.00  0.00     0.018 A 
ATOM     22  C   UNL     1      -7.293  51.642  32.020  1.00  0.00     0.038 A 
ATOM     23  C   UNL     1      -8.604  51.379  31.640  1.00  0.00     0.019 A 
ATOM     24  Cl  UNL     1      -5.365  53.076  33.217  1.00  0.00    -0.082 Cl
ATOM     25  Br  UNL     1      -9.000  49.828  30.633  1.00  0.00    -0.051 Br
ENDBRANCH  16  18
ENDBRANCH  13  16
ENDBRANCH   1   5
BRANCH   3  26
ATOM     26  O   UNL     1      -3.790  56.672  32.652  1.00  0.00    -0.271 OA
BRANCH  26  27
ATOM     27  C   UNL     1      -2.662  57.277  33.299  1.00  0.00     0.222 C 
BRANCH  27  28
ATOM     28  C   UNL     1      -2.905  57.249  34.802  1.00  0.00     0.187 C 
BRANCH  28  29
ATOM     29  O   UNL     1      -3.307  58.540  35.260  1.00  0.00    -0.394 OA
ATOM     30  H   UNL     1      -4.112  58.761  34.756  1.00  0.00     0.210 HD
ENDBRANCH  28  29
ENDBRANCH  27  28
ENDBRANCH  26  27
ENDBRANCH   3  26
TORSDOF 7
ENDMDL
MODEL 14
REMARK minimizedAffinity -7.33709383
REMARK minimizedRMSD -1
REMARK SMILES Cn1cnc2c(F)c(Nc3ccc(Br)cc3Cl)c(C(=O)NOCCO)cc21
REMARK SMILES IDX 19 1 20 2 21 3 18 5 2 6 3 7 27 8 4 9 26 10 5 11 6 12 8 13
REMARK SMILES IDX 1 14 7 15 9 16 10 18 11 19 16 20 12 21 15 22 13 23 17 24
REMARK SMILES IDX 14 25 22 26 23 27 24 28 25 29
REMARK H PARENT 21 4 9 17 25 30
ROOT
ATOM      1  C   UNL     1      -8.345  62.793  34.969  1.00  0.00     0.277 C 
ATOM      2  O   UNL     1      -8.981  62.580  35.997  1.00  0.00    -0.267 OA
ATOM      3  N   UNL     1      -7.855  61.816  34.122  1.00  0.00    -0.231 N 
ATOM      4  H   UNL     1      -7.018  62.025  33.587  1.00  0.00     0.199 HD
ENDROOT
BRANCH   1   5
ATOM      5  C   UNL     1      -8.030  64.196  34.573  1.00  0.00     0.070 A 
ATOM      6  N   UNL     1      -5.238  66.641  34.092  1.00  0.00    -0.334 N 
ATOM      7  C   UNL     1      -5.557  67.899  33.674  1.00  0.00     0.200 A 
ATOM      8  C   UNL     1      -6.402  65.918  34.206  1.00  0.00     0.072 A 
ATOM      9  N   UNL     1      -6.851  68.035  33.504  1.00  0.00    -0.234 NA
ATOM     10  C   UNL     1      -6.676  64.600  34.583  1.00  0.00     0.045 A 
ATOM     11  C   UNL     1      -7.398  66.812  33.824  1.00  0.00     0.126 A 
ATOM     12  C   UNL     1      -8.739  66.379  33.805  1.00  0.00     0.175 A 
ATOM     13  C   UNL     1      -9.080  65.063  34.178  1.00  0.00     0.090 A 
ATOM     14  C   UNL     1      -3.904  66.162  34.359  1.00  0.00     0.151 C 
ATOM     15  F   UNL     1      -9.683  67.232  33.376  1.00  0.00    -0.202 F 
BRANCH  13  16
ATOM     16  N   UNL     1     -10.419  64.605  34.233  1.00  0.00    -0.351 N 
ATOM     17  H   UNL     1     -10.829  64.676  35.175  1.00  0.00     0.167 HD
BRANCH  16  18
ATOM     18  C   UNL     1     -11.294  64.020  33.296  1.00  0.00     0.057 A 
ATOM     19  C   UNL     1     -11.172  62.685  32.888  1.00  0.00     0.029 A 
ATOM     20  C   UNL     1     -12.355  64.775  32.749  1.00  0.00     0.065 A 
ATOM     21  C   UNL     1     -12.068  62.122  31.972  1.00  0.00     0.018 A 
ATOM     22  C   UNL     1     -13.253  64.220  31.834  1.00  0.00     0.038 A 
ATOM     23  C   UNL     1     -13.104  62.891  31.451  1.00  0.00     0.019 A 
ATOM     24  Cl  UNL     1     -12.579  66.433  33.195  1.00  0.00    -0.082 Cl
ATOM     25  Br  UNL     1     -14.309  62.127  30.212  1.00  0.00    -0.051 Br
ENDBRANCH  16  18
ENDBRANCH  13  16
ENDBRANCH   1   5
BRANCH   3  26
ATOM     26  O   UNL     1      -7.849  60.522  34.706  1.00  0.00    -0.271 OA
BRANCH  26  27
ATOM     27  C   UNL     1      -7.963  59.549  33.658  1.00  0.00     0.222 C 
BRANCH  27  28
ATOM     28  C   UNL     1      -8.352  60.275  32.377  1.00  0.00     0.187 C 
BRANCH  28  29
ATOM     29  O   UNL     1      -7.432  59.958  31.332  1.00  0.00    -0.394 OA
ATOM     30  H   UNL     1      -7.464  58.988  31.236  1.00  0.00     0.210 HD
ENDBRANCH  28  29
ENDBRANCH  27  28
ENDBRANCH  26  27
ENDBRANCH   3  26
TORSDOF 7
ENDMDL
MODEL 15
REMARK minimizedAffinity -7.32193565
REMARK minimizedRMSD -1
REMARK SMILES Cn1cnc2c(F)c(Nc3ccc(Br)cc3Cl)c(C(=O)NOCCO)cc21
REMARK SMILES IDX 19 1 20 2 21 3 18 5 2 6 3 7 27 8 4 9 26 10 5 11 6 12 8 13
REMARK SMILES IDX 1 14 7 15 9 16 10 18 11 19 16 20 12 21 15 22 13 23 17 24
REMARK SMILES IDX 14 25 22 26 23 27 24 28 25 29
REMARK H PARENT 21 4 9 17 25 30
ROOT
ATOM      1  C   UNL     1      -8.669  62.659  33.154  1.00  0.00     0.277 C 
ATOM      2  O   UNL     1      -9.046  62.493  31.999  1.00  0.00    -0.267 OA
ATOM      3  N   UNL     1      -8.213  61.657  33.993  1.00  0.00    -0.231 N 
ATOM      4  H   UNL     1      -8.344  61.777  34.992  1.00  0.00     0.199 HD
ENDROOT
BRANCH   1   5
ATOM      5  C   UNL     1      -8.711  64.023  33.756  1.00  0.00     0.070 A 
ATOM      6  N   UNL     1      -6.604  66.957  34.732  1.00  0.00    -0.334 N 
ATOM      7  C   UNL     1      -7.229  68.035  35.287  1.00  0.00     0.200 A 
ATOM      8  C   UNL     1      -7.554  66.003  34.457  1.00  0.00     0.072 A 
ATOM      9  N   UNL     1      -8.523  67.843  35.382  1.00  0.00    -0.234 NA
ATOM     10  C   UNL     1      -7.493  64.726  33.893  1.00  0.00     0.045 A 
ATOM     11  C   UNL     1      -8.751  66.587  34.866  1.00  0.00     0.126 A 
ATOM     12  C   UNL     1      -9.954  65.872  34.702  1.00  0.00     0.175 A 
ATOM     13  C   UNL     1      -9.958  64.578  34.143  1.00  0.00     0.090 A 
ATOM     14  C   UNL     1      -5.188  66.851  34.478  1.00  0.00     0.151 C 
ATOM     15  F   UNL     1     -11.107  66.469  35.044  1.00  0.00    -0.202 F 
BRANCH  13  16
ATOM     16  N   UNL     1     -11.135  63.800  34.017  1.00  0.00    -0.351 N 
ATOM     17  H   UNL     1     -11.279  63.160  34.811  1.00  0.00     0.167 HD
BRANCH  16  18
ATOM     18  C   UNL     1     -12.120  63.668  33.019  1.00  0.00     0.057 A 
ATOM     19  C   UNL     1     -12.690  64.776  32.378  1.00  0.00     0.029 A 
ATOM     20  C   UNL     1     -12.551  62.387  32.612  1.00  0.00     0.065 A 
ATOM     21  C   UNL     1     -13.651  64.618  31.373  1.00  0.00     0.018 A 
ATOM     22  C   UNL     1     -13.511  62.220  31.611  1.00  0.00     0.038 A 
ATOM     23  C   UNL     1     -14.055  63.342  30.994  1.00  0.00     0.019 A 
ATOM     24  Cl  UNL     1     -11.902  60.961  33.352  1.00  0.00    -0.082 Cl
ATOM     25  Br  UNL     1     -15.357  63.133  29.639  1.00  0.00    -0.051 Br
ENDBRANCH  16  18
ENDBRANCH  13  16
ENDBRANCH   1   5
BRANCH   3  26
ATOM     26  O   UNL     1      -8.529  60.354  33.528  1.00  0.00    -0.271 OA
BRANCH  26  27
ATOM     27  C   UNL     1      -7.355  59.537  33.632  1.00  0.00     0.222 C 
BRANCH  27  28
ATOM     28  C   UNL     1      -6.994  59.046  32.236  1.00  0.00     0.187 C 
BRANCH  28  29
ATOM     29  O   UNL     1      -7.562  59.907  31.248  1.00  0.00    -0.394 OA
ATOM     30  H   UNL     1      -7.205  60.796  31.435  1.00  0.00     0.210 HD
ENDBRANCH  28  29
ENDBRANCH  27  28
ENDBRANCH  26  27
ENDBRANCH   3  26
TORSDOF 7
ENDMDL
MODEL 16
REMARK minimizedAffinity -7.30706882
REMARK minimizedRMSD -1
REMARK SMILES Cn1cnc2c(F)c(Nc3ccc(Br)cc3Cl)c(C(=O)NOCCO)cc21
REMARK SMILES IDX 19 1 20 2 21 3 18 5 2 6 3 7 27 8 4 9 26 10 5 11 6 12 8 13
REMARK SMILES IDX 1 14 7 15 9 16 10 18 11 19 16 20 12 21 15 22 13 23 17 24
REMARK SMILES IDX 14 25 22 26 23 27 24 28 25 29
REMARK H PARENT 21 4 9 17 25 30
ROOT
ATOM      1  C   UNL     1     -10.870  67.280  33.297  1.00  0.00     0.277 C 
ATOM      2  O   UNL     1     -10.433  67.896  34.263  1.00  0.00    -0.267 OA
ATOM      3  N   UNL     1     -11.713  67.806  32.334  1.00  0.00    -0.231 N 
ATOM      4  H   UNL     1     -12.350  67.173  31.861  1.00  0.00     0.199 HD
ENDROOT
BRANCH   1   5
ATOM      5  C   UNL     1     -10.516  65.842  33.115  1.00  0.00     0.070 A 
ATOM      6  N   UNL     1     -11.854  62.354  33.323  1.00  0.00    -0.334 N 
ATOM      7  C   UNL     1     -11.011  61.328  33.012  1.00  0.00     0.200 A 
ATOM      8  C   UNL     1     -11.163  63.534  33.186  1.00  0.00     0.072 A 
ATOM      9  N   UNL     1      -9.821  61.768  32.677  1.00  0.00    -0.234 NA
ATOM     10  C   UNL     1     -11.515  64.875  33.364  1.00  0.00     0.045 A 
ATOM     11  C   UNL     1      -9.893  63.140  32.771  1.00  0.00     0.126 A 
ATOM     12  C   UNL     1      -8.919  64.125  32.512  1.00  0.00     0.175 A 
ATOM     13  C   UNL     1      -9.212  65.494  32.677  1.00  0.00     0.090 A 
ATOM     14  C   UNL     1     -13.233  62.212  33.719  1.00  0.00     0.151 C 
ATOM     15  F   UNL     1      -7.718  63.736  32.055  1.00  0.00    -0.202 F 
BRANCH  13  16
ATOM     16  N   UNL     1      -8.246  66.513  32.488  1.00  0.00    -0.351 N 
ATOM     17  H   UNL     1      -8.457  67.120  31.684  1.00  0.00     0.167 HD
BRANCH  16  18
ATOM     18  C   UNL     1      -7.033  66.843  33.124  1.00  0.00     0.057 A 
ATOM     19  C   UNL     1      -6.110  65.870  33.528  1.00  0.00     0.029 A 
ATOM     20  C   UNL     1      -6.698  68.196  33.355  1.00  0.00     0.065 A 
ATOM     21  C   UNL     1      -4.901  66.225  34.137  1.00  0.00     0.018 A 
ATOM     22  C   UNL     1      -5.494  68.559  33.963  1.00  0.00     0.038 A 
ATOM     23  C   UNL     1      -4.599  67.567  34.350  1.00  0.00     0.019 A 
ATOM     24  Cl  UNL     1      -7.782  69.464  32.890  1.00  0.00    -0.082 Cl
ATOM     25  Br  UNL     1      -2.967  68.042  35.177  1.00  0.00    -0.051 Br
ENDBRANCH  16  18
ENDBRANCH  13  16
ENDBRANCH   1   5
BRANCH   3  26
ATOM     26  O   UNL     1     -12.313  69.031  32.728  1.00  0.00    -0.271 OA
BRANCH  26  27
ATOM     27  C   UNL     1     -13.641  68.756  33.195  1.00  0.00     0.222 C 
BRANCH  27  28
ATOM     28  C   UNL     1     -13.741  69.223  34.642  1.00  0.00     0.187 C 
BRANCH  28  29
ATOM     29  O   UNL     1     -12.559  69.932  35.014  1.00  0.00    -0.394 OA
ATOM     30  H   UNL     1     -12.487  70.675  34.386  1.00  0.00     0.210 HD
ENDBRANCH  28  29
ENDBRANCH  27  28
ENDBRANCH  26  27
ENDBRANCH   3  26
TORSDOF 7
ENDMDL
MODEL 17
REMARK minimizedAffinity -7.27943754
REMARK minimizedRMSD -1
REMARK SMILES Cn1cnc2c(F)c(Nc3ccc(Br)cc3Cl)c(C(=O)NOCCO)cc21
REMARK SMILES IDX 19 1 20 2 21 3 18 5 2 6 3 7 27 8 4 9 26 10 5 11 6 12 8 13
REMARK SMILES IDX 1 14 7 15 9 16 10 18 11 19 16 20 12 21 15 22 13 23 17 24
REMARK SMILES IDX 14 25 22 26 23 27 24 28 25 29
REMARK H PARENT 21 4 9 17 25 30
ROOT
ATOM      1  C   UNL     1      -4.987  54.923  31.916  1.00  0.00     0.277 C 
ATOM      2  O   UNL     1      -4.987  55.841  31.101  1.00  0.00    -0.267 OA
ATOM      3  N   UNL     1      -3.927  54.594  32.741  1.00  0.00    -0.231 N 
ATOM      4  H   UNL     1      -3.833  53.627  33.033  1.00  0.00     0.199 HD
ENDROOT
BRANCH   1   5
ATOM      5  C   UNL     1      -6.190  54.050  32.045  1.00  0.00     0.070 A 
ATOM      6  N   UNL     1      -7.708  50.820  30.924  1.00  0.00    -0.334 N 
ATOM      7  C   UNL     1      -8.941  50.492  31.408  1.00  0.00     0.200 A 
ATOM      8  C   UNL     1      -7.347  52.035  31.455  1.00  0.00     0.072 A 
ATOM      9  N   UNL     1      -9.397  51.413  32.223  1.00  0.00    -0.234 NA
ATOM     10  C   UNL     1      -6.212  52.839  31.318  1.00  0.00     0.045 A 
ATOM     11  C   UNL     1      -8.418  52.382  32.274  1.00  0.00     0.126 A 
ATOM     12  C   UNL     1      -8.364  53.587  33.002  1.00  0.00     0.175 A 
ATOM     13  C   UNL     1      -7.249  54.443  32.903  1.00  0.00     0.090 A 
ATOM     14  C   UNL     1      -6.926  50.017  30.015  1.00  0.00     0.151 C 
ATOM     15  F   UNL     1      -9.376  53.880  33.834  1.00  0.00    -0.202 F 
BRANCH  13  16
ATOM     16  N   UNL     1      -7.179  55.692  33.569  1.00  0.00    -0.351 N 
ATOM     17  H   UNL     1      -6.737  55.627  34.496  1.00  0.00     0.167 HD
BRANCH  16  18
ATOM     18  C   UNL     1      -7.631  56.991  33.264  1.00  0.00     0.057 A 
ATOM     19  C   UNL     1      -8.942  57.248  32.841  1.00  0.00     0.029 A 
ATOM     20  C   UNL     1      -6.762  58.095  33.402  1.00  0.00     0.065 A 
ATOM     21  C   UNL     1      -9.373  58.551  32.566  1.00  0.00     0.018 A 
ATOM     22  C   UNL     1      -7.184  59.398  33.128  1.00  0.00     0.038 A 
ATOM     23  C   UNL     1      -8.492  59.618  32.712  1.00  0.00     0.019 A 
ATOM     24  Cl  UNL     1      -5.123  57.869  33.916  1.00  0.00    -0.082 Cl
ATOM     25  Br  UNL     1      -9.078  61.376  32.335  1.00  0.00    -0.051 Br
ENDBRANCH  16  18
ENDBRANCH  13  16
ENDBRANCH   1   5
BRANCH   3  26
ATOM     26  O   UNL     1      -2.702  55.191  32.340  1.00  0.00    -0.271 OA
BRANCH  26  27
ATOM     27  C   UNL     1      -1.989  55.599  33.516  1.00  0.00     0.222 C 
BRANCH  27  28
ATOM     28  C   UNL     1      -0.796  54.669  33.695  1.00  0.00     0.187 C 
BRANCH  28  29
ATOM     29  O   UNL     1       0.423  55.391  33.516  1.00  0.00    -0.394 OA
ATOM     30  H   UNL     1       0.405  56.108  34.178  1.00  0.00     0.210 HD
ENDBRANCH  28  29
ENDBRANCH  27  28
ENDBRANCH  26  27
ENDBRANCH   3  26
TORSDOF 7
ENDMDL
MODEL 18
REMARK minimizedAffinity -7.2335515
REMARK minimizedRMSD -1
REMARK SMILES Cn1cnc2c(F)c(Nc3ccc(Br)cc3Cl)c(C(=O)NOCCO)cc21
REMARK SMILES IDX 19 1 20 2 21 3 18 5 2 6 3 7 27 8 4 9 26 10 5 11 6 12 8 13
REMARK SMILES IDX 1 14 7 15 9 16 10 18 11 19 16 20 12 21 15 22 13 23 17 24
REMARK SMILES IDX 14 25 22 26 23 27 24 28 25 29
REMARK H PARENT 21 4 9 17 25 30
ROOT
ATOM      1  C   UNL     1      -4.377  56.580  33.282  1.00  0.00     0.277 C 
ATOM      2  O   UNL     1      -4.330  57.804  33.210  1.00  0.00    -0.267 OA
ATOM      3  N   UNL     1      -3.572  55.800  34.093  1.00  0.00    -0.231 N 
ATOM      4  H   UNL     1      -3.363  54.855  33.789  1.00  0.00     0.199 HD
ENDROOT
BRANCH   1   5
ATOM      5  C   UNL     1      -5.341  55.826  32.428  1.00  0.00     0.070 A 
ATOM      6  N   UNL     1      -5.617  53.148  29.830  1.00  0.00    -0.334 N 
ATOM      7  C   UNL     1      -6.862  52.834  29.367  1.00  0.00     0.200 A 
ATOM      8  C   UNL     1      -5.746  54.148  30.764  1.00  0.00     0.072 A 
ATOM      9  N   UNL     1      -7.787  53.562  29.945  1.00  0.00    -0.234 NA
ATOM     10  C   UNL     1      -4.826  54.845  31.553  1.00  0.00     0.045 A 
ATOM     11  C   UNL     1      -7.117  54.385  30.825  1.00  0.00     0.126 A 
ATOM     12  C   UNL     1      -7.607  55.357  31.719  1.00  0.00     0.175 A 
ATOM     13  C   UNL     1      -6.729  56.095  32.538  1.00  0.00     0.090 A 
ATOM     14  C   UNL     1      -4.387  52.525  29.408  1.00  0.00     0.151 C 
ATOM     15  F   UNL     1      -8.935  55.532  31.812  1.00  0.00    -0.202 F 
BRANCH  13  16
ATOM     16  N   UNL     1      -7.172  57.124  33.406  1.00  0.00    -0.351 N 
ATOM     17  H   UNL     1      -6.905  56.963  34.387  1.00  0.00     0.167 HD
BRANCH  16  18
ATOM     18  C   UNL     1      -7.946  58.288  33.230  1.00  0.00     0.057 A 
ATOM     19  C   UNL     1      -7.479  59.396  32.510  1.00  0.00     0.029 A 
ATOM     20  C   UNL     1      -9.250  58.362  33.767  1.00  0.00     0.065 A 
ATOM     21  C   UNL     1      -8.276  60.532  32.330  1.00  0.00     0.018 A 
ATOM     22  C   UNL     1     -10.051  59.493  33.592  1.00  0.00     0.038 A 
ATOM     23  C   UNL     1      -9.557  60.574  32.871  1.00  0.00     0.019 A 
ATOM     24  Cl  UNL     1      -9.906  57.039  34.673  1.00  0.00    -0.082 Cl
ATOM     25  Br  UNL     1     -10.628  62.113  32.629  1.00  0.00    -0.051 Br
ENDBRANCH  16  18
ENDBRANCH  13  16
ENDBRANCH   1   5
BRANCH   3  26
ATOM     26  O   UNL     1      -2.445  56.499  34.598  1.00  0.00    -0.271 OA
BRANCH  26  27
ATOM     27  C   UNL     1      -1.294  56.120  33.832  1.00  0.00     0.222 C 
BRANCH  27  28
ATOM     28  C   UNL     1      -1.287  54.602  33.706  1.00  0.00     0.187 C 
BRANCH  28  29
ATOM     29  O   UNL     1       0.056  54.118  33.649  1.00  0.00    -0.394 OA
ATOM     30  H   UNL     1       0.484  54.427  34.469  1.00  0.00     0.210 HD
ENDBRANCH  28  29
ENDBRANCH  27  28
ENDBRANCH  26  27
ENDBRANCH   3  26
TORSDOF 7
ENDMDL
MODEL 19
REMARK minimizedAffinity -7.14448977
REMARK minimizedRMSD -1
REMARK SMILES Cn1cnc2c(F)c(Nc3ccc(Br)cc3Cl)c(C(=O)NOCCO)cc21
REMARK SMILES IDX 19 1 20 2 21 3 18 5 2 6 3 7 27 8 4 9 26 10 5 11 6 12 8 13
REMARK SMILES IDX 1 14 7 15 9 16 10 18 11 19 16 20 12 21 15 22 13 23 17 24
REMARK SMILES IDX 14 25 22 26 23 27 24 28 25 29
REMARK H PARENT 21 4 9 17 25 30
ROOT
ATOM      1  C   UNL     1      -4.042  54.925  32.460  1.00  0.00     0.277 C 
ATOM      2  O   UNL     1      -3.910  54.398  33.561  1.00  0.00    -0.267 OA
ATOM      3  N   UNL     1      -3.232  55.928  31.957  1.00  0.00    -0.231 N 
ATOM      4  H   UNL     1      -3.639  56.581  31.296  1.00  0.00     0.199 HD
ENDROOT
BRANCH   1   5
ATOM      5  C   UNL     1      -5.162  54.504  31.569  1.00  0.00     0.070 A 
ATOM      6  N   UNL     1      -6.083  52.218  28.754  1.00  0.00    -0.334 N 
ATOM      7  C   UNL     1      -7.368  52.254  28.298  1.00  0.00     0.200 A 
ATOM      8  C   UNL     1      -5.964  53.131  29.775  1.00  0.00     0.072 A 
ATOM      9  N   UNL     1      -8.090  53.126  28.962  1.00  0.00    -0.234 NA
ATOM     10  C   UNL     1      -4.901  53.513  30.598  1.00  0.00     0.045 A 
ATOM     11  C   UNL     1      -7.238  53.681  29.892  1.00  0.00     0.126 A 
ATOM     12  C   UNL     1      -7.477  54.656  30.880  1.00  0.00     0.175 A 
ATOM     13  C   UNL     1      -6.445  55.085  31.738  1.00  0.00     0.090 A 
ATOM     14  C   UNL     1      -5.040  51.361  28.248  1.00  0.00     0.151 C 
ATOM     15  F   UNL     1      -8.724  55.133  31.023  1.00  0.00    -0.202 F 
BRANCH  13  16
ATOM     16  N   UNL     1      -6.624  56.106  32.704  1.00  0.00    -0.351 N 
ATOM     17  H   UNL     1      -6.223  55.865  33.621  1.00  0.00     0.167 HD
BRANCH  16  18
ATOM     18  C   UNL     1      -7.280  57.353  32.700  1.00  0.00     0.057 A 
ATOM     19  C   UNL     1      -6.714  58.496  32.121  1.00  0.00     0.029 A 
ATOM     20  C   UNL     1      -8.564  57.481  33.274  1.00  0.00     0.065 A 
ATOM     21  C   UNL     1      -7.396  59.718  32.111  1.00  0.00     0.018 A 
ATOM     22  C   UNL     1      -9.252  58.698  33.269  1.00  0.00     0.038 A 
ATOM     23  C   UNL     1      -8.661  59.812  32.683  1.00  0.00     0.019 A 
ATOM     24  Cl  UNL     1      -9.339  56.120  34.015  1.00  0.00    -0.082 Cl
ATOM     25  Br  UNL     1      -9.576  61.466  32.671  1.00  0.00    -0.051 Br
ENDBRANCH  16  18
ENDBRANCH  13  16
ENDBRANCH   1   5
BRANCH   3  26
ATOM     26  O   UNL     1      -2.430  56.547  32.951  1.00  0.00    -0.271 OA
BRANCH  26  27
ATOM     27  C   UNL     1      -3.154  57.661  33.492  1.00  0.00     0.222 C 
BRANCH  27  28
ATOM     28  C   UNL     1      -3.120  57.557  35.011  1.00  0.00     0.187 C 
BRANCH  28  29
ATOM     29  O   UNL     1      -2.886  58.843  35.587  1.00  0.00    -0.394 OA
ATOM     30  H   UNL     1      -3.610  59.412  35.268  1.00  0.00     0.210 HD
ENDBRANCH  28  29
ENDBRANCH  27  28
ENDBRANCH  26  27
ENDBRANCH   3  26
TORSDOF 7
ENDMDL
