MODEL 1
REMARK minimizedAffinity -9.11703205
REMARK minimizedRMSD -1
REMARK SMILES CC(=O)Nc1cccc(-n2c(=O)n(C3CC3)c(=O)c3c(Nc4ccc(I)cc4F)n(C)c(=O)c(C)c32)c1
REMARK SMILES IDX 10 1 11 2 12 3 13 4 17 5 18 6 19 7 20 8 30 9 31 10 32 11
REMARK SMILES IDX 33 12 34 13 35 14 36 15 9 16 5 17 6 18 37 19 7 20 8 21 4 22
REMARK SMILES IDX 2 23 3 24 1 25 14 27 15 28 16 29 21 30 22 32 23 33 28 34
REMARK SMILES IDX 24 35 27 36 25 37 29 38 26 39
REMARK H PARENT 4 26 21 31
ROOT
ATOM      1  N   UNL     1      -7.953  53.726  31.081  1.00  0.00    -0.261 N 
ATOM      2  C   UNL     1      -9.069  53.495  31.919  1.00  0.00     0.336 C 
ATOM      3  O   UNL     1     -10.139  53.020  31.521  1.00  0.00    -0.247 OA
ATOM      4  N   UNL     1      -8.917  53.854  33.258  1.00  0.00    -0.256 N 
ATOM      5  C   UNL     1      -8.104  54.904  33.663  1.00  0.00     0.268 C 
ATOM      6  O   UNL     1      -8.260  55.459  34.751  1.00  0.00    -0.268 OA
ATOM      7  C   UNL     1      -6.999  55.256  32.714  1.00  0.00     0.106 C 
ATOM      8  C   UNL     1      -6.149  56.285  32.972  1.00  0.00     0.128 C 
ATOM      9  N   UNL     1      -4.955  56.334  32.239  1.00  0.00    -0.297 N 
ATOM     10  C   UNL     1      -4.009  57.424  32.444  1.00  0.00     0.155 C 
ATOM     11  C   UNL     1      -4.546  55.306  31.398  1.00  0.00     0.256 C 
ATOM     12  O   UNL     1      -3.408  55.219  30.941  1.00  0.00    -0.269 OA
ATOM     13  C   UNL     1      -5.583  54.303  31.005  1.00  0.00     0.040 C 
ATOM     14  C   UNL     1      -5.091  53.289  30.008  1.00  0.00     0.053 C 
ATOM     15  C   UNL     1      -6.814  54.401  31.554  1.00  0.00     0.076 C 
ENDROOT
BRANCH   1  16
ATOM     16  C   UNL     1      -8.152  53.454  29.669  1.00  0.00     0.053 A 
ATOM     17  C   UNL     1      -9.172  54.049  27.527  1.00  0.00     0.043 A 
ATOM     18  C   UNL     1      -8.535  52.954  26.934  1.00  0.00     0.026 A 
ATOM     19  C   UNL     1      -8.985  54.283  28.893  1.00  0.00     0.053 A 
ATOM     20  C   UNL     1      -7.721  52.111  27.691  1.00  0.00     0.004 A 
ATOM     21  C   UNL     1      -7.531  52.361  29.049  1.00  0.00     0.027 A 
BRANCH  17  22
ATOM     22  N   UNL     1      -9.970  54.857  26.690  1.00  0.00    -0.326 N 
ATOM     23  C   UNL     1      -9.666  55.314  25.419  1.00  0.00     0.221 C 
ATOM     24  O   UNL     1      -8.638  55.106  24.785  1.00  0.00    -0.275 OA
ATOM     25  C   UNL     1     -10.787  56.137  24.835  1.00  0.00     0.114 C 
ATOM     26  H   UNL     1     -10.877  55.116  27.057  1.00  0.00     0.169 HD
ENDBRANCH  17  22
ENDBRANCH   1  16
BRANCH   4  27
ATOM     27  C   UNL     1      -9.963  53.436  34.181  1.00  0.00     0.096 C 
ATOM     28  C   UNL     1      -9.640  53.024  35.598  1.00  0.00     0.028 C 
ATOM     29  C   UNL     1     -10.104  51.996  34.617  1.00  0.00     0.028 C 
ENDBRANCH   4  27
BRANCH   8  30
ATOM     30  N   UNL     1      -6.364  57.222  33.977  1.00  0.00    -0.338 N 
ATOM     31  H   UNL     1      -5.539  57.413  34.531  1.00  0.00     0.168 HD
BRANCH  30  32
ATOM     32  C   UNL     1      -7.186  58.375  33.864  1.00  0.00     0.076 A 
ATOM     33  C   UNL     1      -7.253  59.005  32.610  1.00  0.00     0.030 A 
ATOM     34  C   UNL     1      -7.853  58.995  34.935  1.00  0.00     0.147 A 
ATOM     35  C   UNL     1      -7.990  60.181  32.426  1.00  0.00     0.017 A 
ATOM     36  C   UNL     1      -8.591  60.166  34.763  1.00  0.00     0.056 A 
ATOM     37  C   UNL     1      -8.658  60.755  33.505  1.00  0.00     0.016 A 
ATOM     38  F   UNL     1      -7.820  58.466  36.168  1.00  0.00    -0.205 F 
ATOM     39  I   UNL     1      -9.751  62.500  33.236  1.00  0.00    -0.044 I 
ENDBRANCH  30  32
ENDBRANCH   8  30
TORSDOF 5
ENDMDL
MODEL 2
REMARK minimizedAffinity -9.0466814
REMARK minimizedRMSD -1
REMARK SMILES CC(=O)Nc1cccc(-n2c(=O)n(C3CC3)c(=O)c3c(Nc4ccc(I)cc4F)n(C)c(=O)c(C)c32)c1
REMARK SMILES IDX 10 1 11 2 12 3 13 4 17 5 18 6 19 7 20 8 30 9 31 10 32 11
REMARK SMILES IDX 33 12 34 13 35 14 36 15 9 16 5 17 6 18 37 19 7 20 8 21 4 22
REMARK SMILES IDX 2 23 3 24 1 25 14 27 15 28 16 29 21 30 22 32 23 33 28 34
REMARK SMILES IDX 24 35 27 36 25 37 29 38 26 39
REMARK H PARENT 4 26 21 31
ROOT
ATOM      1  N   UNL     1      -8.678  53.679  32.572  1.00  0.00    -0.261 N 
ATOM      2  C   UNL     1      -9.595  53.715  33.649  1.00  0.00     0.336 C 
ATOM      3  O   UNL     1     -10.712  53.186  33.616  1.00  0.00    -0.247 OA
ATOM      4  N   UNL     1      -9.184  54.413  34.784  1.00  0.00    -0.256 N 
ATOM      5  C   UNL     1      -8.330  55.505  34.722  1.00  0.00     0.268 C 
ATOM      6  O   UNL     1      -8.274  56.334  35.631  1.00  0.00    -0.268 OA
ATOM      7  C   UNL     1      -7.448  55.557  33.511  1.00  0.00     0.106 C 
ATOM      8  C   UNL     1      -6.587  56.589  33.308  1.00  0.00     0.128 C 
ATOM      9  N   UNL     1      -5.568  56.403  32.365  1.00  0.00    -0.297 N 
ATOM     10  C   UNL     1      -4.626  57.476  32.076  1.00  0.00     0.155 C 
ATOM     11  C   UNL     1      -5.315  55.175  31.764  1.00  0.00     0.256 C 
ATOM     12  O   UNL     1      -4.290  54.933  31.127  1.00  0.00    -0.269 OA
ATOM     13  C   UNL     1      -6.386  54.138  31.869  1.00  0.00     0.040 C 
ATOM     14  C   UNL     1      -6.083  52.880  31.102  1.00  0.00     0.053 C 
ATOM     15  C   UNL     1      -7.482  54.418  32.609  1.00  0.00     0.076 C 
ENDROOT
BRANCH   1  16
ATOM     16  C   UNL     1      -9.152  53.048  31.355  1.00  0.00     0.053 A 
ATOM     17  C   UNL     1      -9.999  53.240  29.068  1.00  0.00     0.043 A 
ATOM     18  C   UNL     1     -10.055  51.845  28.984  1.00  0.00     0.026 A 
ATOM     19  C   UNL     1      -9.559  53.830  30.257  1.00  0.00     0.053 A 
ATOM     20  C   UNL     1      -9.674  51.054  30.068  1.00  0.00     0.004 A 
ATOM     21  C   UNL     1      -9.225  51.652  31.244  1.00  0.00     0.027 A 
BRANCH  17  22
ATOM     22  N   UNL     1     -10.393  53.967  27.925  1.00  0.00    -0.326 N 
ATOM     23  C   UNL     1      -9.622  54.284  26.820  1.00  0.00     0.221 C 
ATOM     24  O   UNL     1      -8.446  53.997  26.632  1.00  0.00    -0.275 OA
ATOM     25  C   UNL     1     -10.407  55.057  25.789  1.00  0.00     0.114 C 
ATOM     26  H   UNL     1     -11.357  54.275  27.906  1.00  0.00     0.169 HD
ENDBRANCH  17  22
ENDBRANCH   1  16
BRANCH   4  27
ATOM     27  C   UNL     1     -10.011  54.289  35.976  1.00  0.00     0.096 C 
ATOM     28  C   UNL     1      -9.457  54.587  37.350  1.00  0.00     0.028 C 
ATOM     29  C   UNL     1      -9.794  53.178  36.978  1.00  0.00     0.028 C 
ENDBRANCH   4  27
BRANCH   8  30
ATOM     30  N   UNL     1      -6.616  57.766  34.049  1.00  0.00    -0.338 N 
ATOM     31  H   UNL     1      -5.696  58.110  34.291  1.00  0.00     0.168 HD
BRANCH  30  32
ATOM     32  C   UNL     1      -7.532  58.834  33.858  1.00  0.00     0.076 A 
ATOM     33  C   UNL     1      -7.749  59.277  32.543  1.00  0.00     0.030 A 
ATOM     34  C   UNL     1      -8.155  59.553  34.894  1.00  0.00     0.147 A 
ATOM     35  C   UNL     1      -8.588  60.365  32.271  1.00  0.00     0.017 A 
ATOM     36  C   UNL     1      -8.994  60.637  34.635  1.00  0.00     0.056 A 
ATOM     37  C   UNL     1      -9.209  61.038  33.321  1.00  0.00     0.016 A 
ATOM     38  F   UNL     1      -7.982  59.204  36.178  1.00  0.00    -0.205 F 
ATOM     39  I   UNL     1     -10.453  62.653  32.923  1.00  0.00    -0.044 I 
ENDBRANCH  30  32
ENDBRANCH   8  30
TORSDOF 5
ENDMDL
MODEL 3
REMARK minimizedAffinity -9.0028944
REMARK minimizedRMSD -1
REMARK SMILES CC(=O)Nc1cccc(-n2c(=O)n(C3CC3)c(=O)c3c(Nc4ccc(I)cc4F)n(C)c(=O)c(C)c32)c1
REMARK SMILES IDX 10 1 11 2 12 3 13 4 17 5 18 6 19 7 20 8 30 9 31 10 32 11
REMARK SMILES IDX 33 12 34 13 35 14 36 15 9 16 5 17 6 18 37 19 7 20 8 21 4 22
REMARK SMILES IDX 2 23 3 24 1 25 14 27 15 28 16 29 21 30 22 32 23 33 28 34
REMARK SMILES IDX 24 35 27 36 25 37 29 38 26 39
REMARK H PARENT 4 26 21 31
ROOT
ATOM      1  N   UNL     1     -12.748  65.352  33.338  1.00  0.00    -0.261 N 
ATOM      2  C   UNL     1     -13.678  66.375  33.634  1.00  0.00     0.336 C 
ATOM      3  O   UNL     1     -14.888  66.293  33.392  1.00  0.00    -0.247 OA
ATOM      4  N   UNL     1     -13.157  67.532  34.213  1.00  0.00    -0.256 N 
ATOM      5  C   UNL     1     -11.871  67.984  33.951  1.00  0.00     0.268 C 
ATOM      6  O   UNL     1     -11.549  69.159  34.137  1.00  0.00    -0.268 OA
ATOM      7  C   UNL     1     -10.905  66.932  33.498  1.00  0.00     0.106 C 
ATOM      8  C   UNL     1      -9.621  67.243  33.177  1.00  0.00     0.128 C 
ATOM      9  N   UNL     1      -8.701  66.189  33.104  1.00  0.00    -0.297 N 
ATOM     10  C   UNL     1      -7.314  66.446  32.739  1.00  0.00     0.155 C 
ATOM     11  C   UNL     1      -9.010  64.892  33.497  1.00  0.00     0.256 C 
ATOM     12  O   UNL     1      -8.163  64.017  33.668  1.00  0.00    -0.269 OA
ATOM     13  C   UNL     1     -10.460  64.563  33.656  1.00  0.00     0.040 C 
ATOM     14  C   UNL     1     -10.717  63.115  33.975  1.00  0.00     0.053 C 
ATOM     15  C   UNL     1     -11.366  65.554  33.502  1.00  0.00     0.076 C 
ENDROOT
BRANCH   1  16
ATOM     16  C   UNL     1     -13.276  64.196  32.637  1.00  0.00     0.053 A 
ATOM     17  C   UNL     1     -13.500  62.897  30.576  1.00  0.00     0.043 A 
ATOM     18  C   UNL     1     -14.274  61.959  31.266  1.00  0.00     0.026 A 
ATOM     19  C   UNL     1     -13.017  64.015  31.264  1.00  0.00     0.053 A 
ATOM     20  C   UNL     1     -14.556  62.131  32.621  1.00  0.00     0.004 A 
ATOM     21  C   UNL     1     -14.060  63.242  33.301  1.00  0.00     0.027 A 
BRANCH  17  22
ATOM     22  N   UNL     1     -13.252  62.644  29.210  1.00  0.00    -0.326 N 
ATOM     23  C   UNL     1     -13.566  63.453  28.132  1.00  0.00     0.221 C 
ATOM     24  O   UNL     1     -14.128  64.541  28.164  1.00  0.00    -0.275 OA
ATOM     25  C   UNL     1     -13.119  62.847  26.825  1.00  0.00     0.114 C 
ATOM     26  H   UNL     1     -12.771  61.778  29.000  1.00  0.00     0.169 HD
ENDBRANCH  17  22
ENDBRANCH   1  16
BRANCH   4  27
ATOM     27  C   UNL     1     -14.110  68.509  34.719  1.00  0.00     0.096 C 
ATOM     28  C   UNL     1     -13.727  69.489  35.803  1.00  0.00     0.028 C 
ATOM     29  C   UNL     1     -14.700  68.395  36.106  1.00  0.00     0.028 C 
ENDBRANCH   4  27
BRANCH   8  30
ATOM     30  N   UNL     1      -9.169  68.548  33.013  1.00  0.00    -0.338 N 
ATOM     31  H   UNL     1      -9.906  69.239  33.080  1.00  0.00     0.168 HD
BRANCH  30  32
ATOM     32  C   UNL     1      -7.938  69.059  33.501  1.00  0.00     0.076 A 
ATOM     33  C   UNL     1      -7.105  69.731  32.590  1.00  0.00     0.030 A 
ATOM     34  C   UNL     1      -7.440  68.853  34.800  1.00  0.00     0.147 A 
ATOM     35  C   UNL     1      -5.848  70.212  32.973  1.00  0.00     0.017 A 
ATOM     36  C   UNL     1      -6.190  69.329  35.193  1.00  0.00     0.056 A 
ATOM     37  C   UNL     1      -5.397  70.010  34.275  1.00  0.00     0.016 A 
ATOM     38  F   UNL     1      -8.166  68.203  35.723  1.00  0.00    -0.205 F 
ATOM     39  I   UNL     1      -3.531  70.722  34.847  1.00  0.00    -0.044 I 
ENDBRANCH  30  32
ENDBRANCH   8  30
TORSDOF 5
ENDMDL
MODEL 4
REMARK minimizedAffinity -8.88128948
REMARK minimizedRMSD -1
REMARK SMILES CC(=O)Nc1cccc(-n2c(=O)n(C3CC3)c(=O)c3c(Nc4ccc(I)cc4F)n(C)c(=O)c(C)c32)c1
REMARK SMILES IDX 10 1 11 2 12 3 13 4 17 5 18 6 19 7 20 8 30 9 31 10 32 11
REMARK SMILES IDX 33 12 34 13 35 14 36 15 9 16 5 17 6 18 37 19 7 20 8 21 4 22
REMARK SMILES IDX 2 23 3 24 1 25 14 27 15 28 16 29 21 30 22 32 23 33 28 34
REMARK SMILES IDX 24 35 27 36 25 37 29 38 26 39
REMARK H PARENT 4 26 21 31
ROOT
ATOM      1  N   UNL     1     -10.747  61.505  33.714  1.00  0.00    -0.261 N 
ATOM      2  C   UNL     1     -11.975  61.807  33.081  1.00  0.00     0.336 C 
ATOM      3  O   UNL     1     -12.751  60.949  32.645  1.00  0.00    -0.247 OA
ATOM      4  N   UNL     1     -12.281  63.161  32.945  1.00  0.00    -0.256 N 
ATOM      5  C   UNL     1     -11.305  64.137  32.796  1.00  0.00     0.268 C 
ATOM      6  O   UNL     1     -11.560  65.236  32.303  1.00  0.00    -0.268 OA
ATOM      7  C   UNL     1      -9.955  63.774  33.336  1.00  0.00     0.106 C 
ATOM      8  C   UNL     1      -8.899  64.625  33.228  1.00  0.00     0.128 C 
ATOM      9  N   UNL     1      -7.788  64.380  34.044  1.00  0.00    -0.297 N 
ATOM     10  C   UNL     1      -6.610  65.235  33.962  1.00  0.00     0.155 C 
ATOM     11  C   UNL     1      -7.790  63.421  35.051  1.00  0.00     0.256 C 
ATOM     12  O   UNL     1      -6.926  63.357  35.924  1.00  0.00    -0.269 OA
ATOM     13  C   UNL     1      -8.880  62.400  35.007  1.00  0.00     0.040 C 
ATOM     14  C   UNL     1      -8.750  61.335  36.063  1.00  0.00     0.053 C 
ATOM     15  C   UNL     1      -9.837  62.520  34.061  1.00  0.00     0.076 C 
ENDROOT
BRANCH   1  16
ATOM     16  C   UNL     1     -10.381  60.102  33.755  1.00  0.00     0.053 A 
ATOM     17  C   UNL     1      -8.889  58.287  33.072  1.00  0.00     0.043 A 
ATOM     18  C   UNL     1      -9.648  57.393  33.835  1.00  0.00     0.026 A 
ATOM     19  C   UNL     1      -9.270  59.632  33.029  1.00  0.00     0.053 A 
ATOM     20  C   UNL     1     -10.763  57.836  34.546  1.00  0.00     0.004 A 
ATOM     21  C   UNL     1     -11.126  59.181  34.506  1.00  0.00     0.027 A 
BRANCH  17  22
ATOM     22  N   UNL     1      -7.772  57.761  32.391  1.00  0.00    -0.326 N 
ATOM     23  C   UNL     1      -6.437  57.887  32.737  1.00  0.00     0.221 C 
ATOM     24  O   UNL     1      -5.977  58.488  33.699  1.00  0.00    -0.275 OA
ATOM     25  C   UNL     1      -5.535  57.162  31.769  1.00  0.00     0.114 C 
ATOM     26  H   UNL     1      -7.974  57.212  31.565  1.00  0.00     0.169 HD
ENDBRANCH  17  22
ENDBRANCH   1  16
BRANCH   4  27
ATOM     27  C   UNL     1     -13.624  63.497  32.493  1.00  0.00     0.096 C 
ATOM     28  C   UNL     1     -14.345  64.718  33.016  1.00  0.00     0.028 C 
ATOM     29  C   UNL     1     -14.824  63.354  33.401  1.00  0.00     0.028 C 
ENDBRANCH   4  27
BRANCH   8  30
ATOM     30  N   UNL     1      -8.912  65.760  32.425  1.00  0.00    -0.338 N 
ATOM     31  H   UNL     1      -9.657  65.757  31.738  1.00  0.00     0.168 HD
BRANCH  30  32
ATOM     32  C   UNL     1      -8.619  67.079  32.861  1.00  0.00     0.076 A 
ATOM     33  C   UNL     1      -7.454  67.685  32.362  1.00  0.00     0.030 A 
ATOM     34  C   UNL     1      -9.349  67.785  33.835  1.00  0.00     0.147 A 
ATOM     35  C   UNL     1      -7.058  68.959  32.787  1.00  0.00     0.017 A 
ATOM     36  C   UNL     1      -8.965  69.055  34.264  1.00  0.00     0.056 A 
ATOM     37  C   UNL     1      -7.818  69.639  33.735  1.00  0.00     0.016 A 
ATOM     38  F   UNL     1     -10.462  67.265  34.374  1.00  0.00    -0.205 F 
ATOM     39  I   UNL     1      -7.234  71.529  34.369  1.00  0.00    -0.044 I 
ENDBRANCH  30  32
ENDBRANCH   8  30
TORSDOF 5
ENDMDL
MODEL 5
REMARK minimizedAffinity -8.87910175
REMARK minimizedRMSD -1
REMARK SMILES CC(=O)Nc1cccc(-n2c(=O)n(C3CC3)c(=O)c3c(Nc4ccc(I)cc4F)n(C)c(=O)c(C)c32)c1
REMARK SMILES IDX 10 1 11 2 12 3 13 4 17 5 18 6 19 7 20 8 30 9 31 10 32 11
REMARK SMILES IDX 33 12 34 13 35 14 36 15 9 16 5 17 6 18 37 19 7 20 8 21 4 22
REMARK SMILES IDX 2 23 3 24 1 25 14 27 15 28 16 29 21 30 22 32 23 33 28 34
REMARK SMILES IDX 24 35 27 36 25 37 29 38 26 39
REMARK H PARENT 4 26 21 31
ROOT
ATOM      1  N   UNL     1      -6.935  54.909  32.661  1.00  0.00    -0.261 N 
ATOM      2  C   UNL     1      -5.621  54.978  33.178  1.00  0.00     0.336 C 
ATOM      3  O   UNL     1      -4.875  53.999  33.290  1.00  0.00    -0.247 OA
ATOM      4  N   UNL     1      -5.189  56.238  33.592  1.00  0.00    -0.256 N 
ATOM      5  C   UNL     1      -6.056  57.197  34.098  1.00  0.00     0.268 C 
ATOM      6  O   UNL     1      -5.654  58.125  34.801  1.00  0.00    -0.268 OA
ATOM      7  C   UNL     1      -7.485  57.053  33.671  1.00  0.00     0.106 C 
ATOM      8  C   UNL     1      -8.445  57.905  34.118  1.00  0.00     0.128 C 
ATOM      9  N   UNL     1      -9.660  57.930  33.422  1.00  0.00    -0.297 N 
ATOM     10  C   UNL     1     -10.744  58.800  33.861  1.00  0.00     0.155 C 
ATOM     11  C   UNL     1      -9.855  57.251  32.224  1.00  0.00     0.256 C 
ATOM     12  O   UNL     1     -10.817  57.451  31.483  1.00  0.00    -0.269 OA
ATOM     13  C   UNL     1      -8.857  56.194  31.877  1.00  0.00     0.040 C 
ATOM     14  C   UNL     1      -9.197  55.433  30.625  1.00  0.00     0.053 C 
ATOM     15  C   UNL     1      -7.790  56.025  32.690  1.00  0.00     0.076 C 
ENDROOT
BRANCH   1  16
ATOM     16  C   UNL     1      -7.420  53.581  32.334  1.00  0.00     0.053 A 
ATOM     17  C   UNL     1      -7.260  51.546  30.985  1.00  0.00     0.043 A 
ATOM     18  C   UNL     1      -8.332  51.003  31.699  1.00  0.00     0.026 A 
ATOM     19  C   UNL     1      -6.820  52.836  31.300  1.00  0.00     0.053 A 
ATOM     20  C   UNL     1      -8.951  51.733  32.714  1.00  0.00     0.004 A 
ATOM     21  C   UNL     1      -8.497  53.012  33.029  1.00  0.00     0.027 A 
BRANCH  17  22
ATOM     22  N   UNL     1      -6.683  50.740  29.981  1.00  0.00    -0.326 N 
ATOM     23  C   UNL     1      -5.459  50.915  29.358  1.00  0.00     0.221 C 
ATOM     24  O   UNL     1      -4.649  51.811  29.560  1.00  0.00    -0.275 OA
ATOM     25  C   UNL     1      -5.181  49.828  28.349  1.00  0.00     0.114 C 
ATOM     26  H   UNL     1      -7.222  49.931  29.699  1.00  0.00     0.169 HD
ENDBRANCH  17  22
ENDBRANCH   1  16
BRANCH   4  27
ATOM     27  C   UNL     1      -3.779  56.380  33.929  1.00  0.00     0.096 C 
ATOM     28  C   UNL     1      -3.017  57.642  33.598  1.00  0.00     0.028 C 
ATOM     29  C   UNL     1      -2.707  56.376  32.864  1.00  0.00     0.028 C 
ENDBRANCH   4  27
BRANCH   8  30
ATOM     30  N   UNL     1      -8.244  58.804  35.160  1.00  0.00    -0.338 N 
ATOM     31  H   UNL     1      -7.497  58.531  35.787  1.00  0.00     0.168 HD
BRANCH  30  32
ATOM     32  C   UNL     1      -8.338  60.217  35.057  1.00  0.00     0.076 A 
ATOM     33  C   UNL     1      -8.814  60.920  36.177  1.00  0.00     0.030 A 
ATOM     34  C   UNL     1      -8.094  60.956  33.886  1.00  0.00     0.147 A 
ATOM     35  C   UNL     1      -8.995  62.308  36.140  1.00  0.00     0.017 A 
ATOM     36  C   UNL     1      -8.270  62.338  33.838  1.00  0.00     0.056 A 
ATOM     37  C   UNL     1      -8.720  63.011  34.970  1.00  0.00     0.016 A 
ATOM     38  F   UNL     1      -7.657  60.354  32.768  1.00  0.00    -0.205 F 
ATOM     39  I   UNL     1      -8.990  65.069  34.911  1.00  0.00    -0.044 I 
ENDBRANCH  30  32
ENDBRANCH   8  30
TORSDOF 5
ENDMDL
MODEL 6
REMARK minimizedAffinity -8.73818111
REMARK minimizedRMSD -1
REMARK SMILES CC(=O)Nc1cccc(-n2c(=O)n(C3CC3)c(=O)c3c(Nc4ccc(I)cc4F)n(C)c(=O)c(C)c32)c1
REMARK SMILES IDX 10 1 11 2 12 3 13 4 17 5 18 6 19 7 20 8 30 9 31 10 32 11
REMARK SMILES IDX 33 12 34 13 35 14 36 15 9 16 5 17 6 18 37 19 7 20 8 21 4 22
REMARK SMILES IDX 2 23 3 24 1 25 14 27 15 28 16 29 21 30 22 32 23 33 28 34
REMARK SMILES IDX 24 35 27 36 25 37 29 38 26 39
REMARK H PARENT 4 26 21 31
ROOT
ATOM      1  N   UNL     1      -7.307  56.503  33.870  1.00  0.00    -0.261 N 
ATOM      2  C   UNL     1      -6.150  56.920  33.172  1.00  0.00     0.336 C 
ATOM      3  O   UNL     1      -5.773  58.096  33.111  1.00  0.00    -0.247 OA
ATOM      4  N   UNL     1      -5.435  55.920  32.514  1.00  0.00    -0.256 N 
ATOM      5  C   UNL     1      -6.043  54.787  31.990  1.00  0.00     0.268 C 
ATOM      6  O   UNL     1      -5.509  54.119  31.104  1.00  0.00    -0.268 OA
ATOM      7  C   UNL     1      -7.346  54.412  32.627  1.00  0.00     0.106 C 
ATOM      8  C   UNL     1      -8.063  53.343  32.189  1.00  0.00     0.128 C 
ATOM      9  N   UNL     1      -9.067  52.851  33.034  1.00  0.00    -0.297 N 
ATOM     10  C   UNL     1      -9.893  51.724  32.619  1.00  0.00     0.155 C 
ATOM     11  C   UNL     1      -9.242  53.302  34.337  1.00  0.00     0.256 C 
ATOM     12  O   UNL     1      -9.946  52.724  35.164  1.00  0.00    -0.269 OA
ATOM     13  C   UNL     1      -8.570  54.587  34.702  1.00  0.00     0.040 C 
ATOM     14  C   UNL     1      -8.896  55.063  36.092  1.00  0.00     0.053 C 
ATOM     15  C   UNL     1      -7.770  55.177  33.787  1.00  0.00     0.076 C 
ENDROOT
BRANCH   1  16
ATOM     16  C   UNL     1      -8.108  57.558  34.461  1.00  0.00     0.053 A 
ATOM     17  C   UNL     1     -10.180  58.859  34.515  1.00  0.00     0.043 A 
ATOM     18  C   UNL     1      -9.681  59.586  35.601  1.00  0.00     0.026 A 
ATOM     19  C   UNL     1      -9.384  57.859  33.946  1.00  0.00     0.053 A 
ATOM     20  C   UNL     1      -8.412  59.315  36.113  1.00  0.00     0.004 A 
ATOM     21  C   UNL     1      -7.632  58.307  35.547  1.00  0.00     0.027 A 
BRANCH  17  22
ATOM     22  N   UNL     1     -11.475  59.189  34.064  1.00  0.00    -0.326 N 
ATOM     23  C   UNL     1     -11.822  60.131  33.112  1.00  0.00     0.221 C 
ATOM     24  O   UNL     1     -11.065  60.863  32.486  1.00  0.00    -0.275 OA
ATOM     25  C   UNL     1     -13.313  60.177  32.884  1.00  0.00     0.114 C 
ATOM     26  H   UNL     1     -12.235  58.659  34.473  1.00  0.00     0.169 HD
ENDBRANCH  17  22
ENDBRANCH   1  16
BRANCH   4  27
ATOM     27  C   UNL     1      -4.134  56.282  31.968  1.00  0.00     0.096 C 
ATOM     28  C   UNL     1      -2.956  55.341  32.058  1.00  0.00     0.028 C 
ATOM     29  C   UNL     1      -2.960  56.600  32.866  1.00  0.00     0.028 C 
ENDBRANCH   4  27
BRANCH   8  30
ATOM     30  N   UNL     1      -7.788  52.671  31.004  1.00  0.00    -0.338 N 
ATOM     31  H   UNL     1      -7.910  51.668  31.073  1.00  0.00     0.168 HD
BRANCH  30  32
ATOM     32  C   UNL     1      -8.105  53.139  29.701  1.00  0.00     0.076 A 
ATOM     33  C   UNL     1      -9.207  54.002  29.571  1.00  0.00     0.030 A 
ATOM     34  C   UNL     1      -7.468  52.721  28.519  1.00  0.00     0.147 A 
ATOM     35  C   UNL     1      -9.625  54.461  28.316  1.00  0.00     0.017 A 
ATOM     36  C   UNL     1      -7.876  53.172  27.264  1.00  0.00     0.056 A 
ATOM     37  C   UNL     1      -8.955  54.045  27.168  1.00  0.00     0.016 A 
ATOM     38  F   UNL     1      -6.421  51.881  28.558  1.00  0.00    -0.205 F 
ATOM     39  I   UNL     1      -9.575  54.722  25.305  1.00  0.00    -0.044 I 
ENDBRANCH  30  32
ENDBRANCH   8  30
TORSDOF 5
ENDMDL
MODEL 7
REMARK minimizedAffinity -8.56259251
REMARK minimizedRMSD -1
REMARK SMILES CC(=O)Nc1cccc(-n2c(=O)n(C3CC3)c(=O)c3c(Nc4ccc(I)cc4F)n(C)c(=O)c(C)c32)c1
REMARK SMILES IDX 10 1 11 2 12 3 13 4 17 5 18 6 19 7 20 8 30 9 31 10 32 11
REMARK SMILES IDX 33 12 34 13 35 14 36 15 9 16 5 17 6 18 37 19 7 20 8 21 4 22
REMARK SMILES IDX 2 23 3 24 1 25 14 27 15 28 16 29 21 30 22 32 23 33 28 34
REMARK SMILES IDX 24 35 27 36 25 37 29 38 26 39
REMARK H PARENT 4 26 21 31
ROOT
ATOM      1  N   UNL     1     -13.047  65.486  32.914  1.00  0.00    -0.261 N 
ATOM      2  C   UNL     1     -13.883  64.885  31.944  1.00  0.00     0.336 C 
ATOM      3  O   UNL     1     -14.996  65.324  31.632  1.00  0.00    -0.247 OA
ATOM      4  N   UNL     1     -13.395  63.724  31.346  1.00  0.00    -0.256 N 
ATOM      5  C   UNL     1     -12.555  62.838  32.007  1.00  0.00     0.268 C 
ATOM      6  O   UNL     1     -12.439  61.667  31.645  1.00  0.00    -0.268 OA
ATOM      7  C   UNL     1     -11.765  63.431  33.134  1.00  0.00     0.106 C 
ATOM      8  C   UNL     1     -10.927  62.667  33.886  1.00  0.00     0.128 C 
ATOM      9  N   UNL     1      -9.979  63.335  34.672  1.00  0.00    -0.297 N 
ATOM     10  C   UNL     1      -9.067  62.582  35.524  1.00  0.00     0.155 C 
ATOM     11  C   UNL     1      -9.761  64.705  34.587  1.00  0.00     0.256 C 
ATOM     12  O   UNL     1      -8.785  65.266  35.082  1.00  0.00    -0.269 OA
ATOM     13  C   UNL     1     -10.815  65.514  33.902  1.00  0.00     0.040 C 
ATOM     14  C   UNL     1     -10.560  66.997  33.949  1.00  0.00     0.053 C 
ATOM     15  C   UNL     1     -11.856  64.867  33.334  1.00  0.00     0.076 C 
ENDROOT
BRANCH   1  16
ATOM     16  C   UNL     1     -13.604  66.629  33.613  1.00  0.00     0.053 A 
ATOM     17  C   UNL     1     -14.311  68.971  33.603  1.00  0.00     0.043 A 
ATOM     18  C   UNL     1     -14.695  68.848  34.942  1.00  0.00     0.026 A 
ATOM     19  C   UNL     1     -13.757  67.864  32.953  1.00  0.00     0.053 A 
ATOM     20  C   UNL     1     -14.534  67.638  35.618  1.00  0.00     0.004 A 
ATOM     21  C   UNL     1     -13.993  66.537  34.957  1.00  0.00     0.027 A 
BRANCH  17  22
ATOM     22  N   UNL     1     -14.516  70.225  32.990  1.00  0.00    -0.326 N 
ATOM     23  C   UNL     1     -15.689  70.714  32.440  1.00  0.00     0.221 C 
ATOM     24  O   UNL     1     -16.770  70.141  32.378  1.00  0.00    -0.275 OA
ATOM     25  C   UNL     1     -15.517  72.110  31.897  1.00  0.00     0.114 C 
ATOM     26  H   UNL     1     -13.715  70.844  32.968  1.00  0.00     0.169 HD
ENDBRANCH  17  22
ENDBRANCH   1  16
BRANCH   4  27
ATOM     27  C   UNL     1     -14.132  63.206  30.202  1.00  0.00     0.096 C 
ATOM     28  C   UNL     1     -13.421  62.539  29.047  1.00  0.00     0.028 C 
ATOM     29  C   UNL     1     -14.065  63.874  28.848  1.00  0.00     0.028 C 
ENDBRANCH   4  27
BRANCH   8  30
ATOM     30  N   UNL     1     -10.910  61.278  33.839  1.00  0.00    -0.338 N 
ATOM     31  H   UNL     1     -11.779  60.877  33.508  1.00  0.00     0.168 HD
BRANCH  30  32
ATOM     32  C   UNL     1      -9.798  60.481  33.457  1.00  0.00     0.076 A 
ATOM     33  C   UNL     1      -9.504  59.356  34.244  1.00  0.00     0.030 A 
ATOM     34  C   UNL     1      -8.907  60.793  32.415  1.00  0.00     0.147 A 
ATOM     35  C   UNL     1      -8.390  58.552  33.975  1.00  0.00     0.017 A 
ATOM     36  C   UNL     1      -7.795  59.998  32.136  1.00  0.00     0.056 A 
ATOM     37  C   UNL     1      -7.541  58.877  32.919  1.00  0.00     0.016 A 
ATOM     38  F   UNL     1      -9.108  61.863  31.630  1.00  0.00    -0.205 F 
ATOM     39  I   UNL     1      -5.887  57.687  32.516  1.00  0.00    -0.044 I 
ENDBRANCH  30  32
ENDBRANCH   8  30
TORSDOF 5
ENDMDL
MODEL 8
REMARK minimizedAffinity -8.54122829
REMARK minimizedRMSD -1
REMARK SMILES CC(=O)Nc1cccc(-n2c(=O)n(C3CC3)c(=O)c3c(Nc4ccc(I)cc4F)n(C)c(=O)c(C)c32)c1
REMARK SMILES IDX 10 1 11 2 12 3 13 4 17 5 18 6 19 7 20 8 30 9 31 10 32 11
REMARK SMILES IDX 33 12 34 13 35 14 36 15 9 16 5 17 6 18 37 19 7 20 8 21 4 22
REMARK SMILES IDX 2 23 3 24 1 25 14 27 15 28 16 29 21 30 22 32 23 33 28 34
REMARK SMILES IDX 24 35 27 36 25 37 29 38 26 39
REMARK H PARENT 4 26 21 31
ROOT
ATOM      1  N   UNL     1     -10.376  59.780  33.776  1.00  0.00    -0.261 N 
ATOM      2  C   UNL     1     -11.440  59.572  32.867  1.00  0.00     0.336 C 
ATOM      3  O   UNL     1     -11.696  58.479  32.349  1.00  0.00    -0.247 OA
ATOM      4  N   UNL     1     -12.205  60.694  32.550  1.00  0.00    -0.256 N 
ATOM      5  C   UNL     1     -11.679  61.978  32.532  1.00  0.00     0.268 C 
ATOM      6  O   UNL     1     -12.218  62.889  31.901  1.00  0.00    -0.268 OA
ATOM      7  C   UNL     1     -10.462  62.179  33.383  1.00  0.00     0.106 C 
ATOM      8  C   UNL     1      -9.826  63.380  33.433  1.00  0.00     0.128 C 
ATOM      9  N   UNL     1      -8.932  63.592  34.490  1.00  0.00    -0.297 N 
ATOM     10  C   UNL     1      -8.195  64.845  34.592  1.00  0.00     0.155 C 
ATOM     11  C   UNL     1      -8.797  62.705  35.552  1.00  0.00     0.256 C 
ATOM     12  O   UNL     1      -8.207  62.983  36.595  1.00  0.00    -0.269 OA
ATOM     13  C   UNL     1      -9.363  61.334  35.362  1.00  0.00     0.040 C 
ATOM     14  C   UNL     1      -9.081  60.402  36.509  1.00  0.00     0.053 C 
ATOM     15  C   UNL     1     -10.041  61.071  34.223  1.00  0.00     0.076 C 
ENDROOT
BRANCH   1  16
ATOM     16  C   UNL     1      -9.515  58.637  34.018  1.00  0.00     0.053 A 
ATOM     17  C   UNL     1      -7.360  57.517  33.726  1.00  0.00     0.043 A 
ATOM     18  C   UNL     1      -7.828  56.443  34.489  1.00  0.00     0.026 A 
ATOM     19  C   UNL     1      -8.211  58.600  33.486  1.00  0.00     0.053 A 
ATOM     20  C   UNL     1      -9.123  56.453  35.009  1.00  0.00     0.004 A 
ATOM     21  C   UNL     1      -9.960  57.543  34.775  1.00  0.00     0.027 A 
BRANCH  17  22
ATOM     22  N   UNL     1      -6.036  57.433  33.246  1.00  0.00    -0.326 N 
ATOM     23  C   UNL     1      -4.866  57.644  33.956  1.00  0.00     0.221 C 
ATOM     24  O   UNL     1      -4.764  57.952  35.137  1.00  0.00    -0.275 OA
ATOM     25  C   UNL     1      -3.643  57.439  33.097  1.00  0.00     0.114 C 
ATOM     26  H   UNL     1      -5.933  57.170  32.274  1.00  0.00     0.169 HD
ENDBRANCH  17  22
ENDBRANCH   1  16
BRANCH   4  27
ATOM     27  C   UNL     1     -13.427  60.471  31.789  1.00  0.00     0.096 C 
ATOM     28  C   UNL     1     -14.625  61.379  31.945  1.00  0.00     0.028 C 
ATOM     29  C   UNL     1     -14.692  59.973  32.450  1.00  0.00     0.028 C 
ENDBRANCH   4  27
BRANCH   8  30
ATOM     30  N   UNL     1     -10.089  64.422  32.550  1.00  0.00    -0.338 N 
ATOM     31  H   UNL     1     -10.223  64.114  31.595  1.00  0.00     0.168 HD
BRANCH  30  32
ATOM     32  C   UNL     1     -10.884  65.563  32.839  1.00  0.00     0.076 A 
ATOM     33  C   UNL     1     -12.170  65.345  33.360  1.00  0.00     0.030 A 
ATOM     34  C   UNL     1     -10.523  66.889  32.542  1.00  0.00     0.147 A 
ATOM     35  C   UNL     1     -13.041  66.411  33.615  1.00  0.00     0.017 A 
ATOM     36  C   UNL     1     -11.382  67.959  32.793  1.00  0.00     0.056 A 
ATOM     37  C   UNL     1     -12.641  67.714  33.332  1.00  0.00     0.016 A 
ATOM     38  F   UNL     1      -9.319  67.178  32.024  1.00  0.00    -0.205 F 
ATOM     39  I   UNL     1     -13.931  69.298  33.707  1.00  0.00    -0.044 I 
ENDBRANCH  30  32
ENDBRANCH   8  30
TORSDOF 5
ENDMDL
MODEL 9
REMARK minimizedAffinity -8.46919727
REMARK minimizedRMSD -1
REMARK SMILES CC(=O)Nc1cccc(-n2c(=O)n(C3CC3)c(=O)c3c(Nc4ccc(I)cc4F)n(C)c(=O)c(C)c32)c1
REMARK SMILES IDX 10 1 11 2 12 3 13 4 17 5 18 6 19 7 20 8 30 9 31 10 32 11
REMARK SMILES IDX 33 12 34 13 35 14 36 15 9 16 5 17 6 18 37 19 7 20 8 21 4 22
REMARK SMILES IDX 2 23 3 24 1 25 14 27 15 28 16 29 21 30 22 32 23 33 28 34
REMARK SMILES IDX 24 35 27 36 25 37 29 38 26 39
REMARK H PARENT 4 26 21 31
ROOT
ATOM      1  N   UNL     1     -12.244  62.583  32.539  1.00  0.00    -0.261 N 
ATOM      2  C   UNL     1     -11.128  61.714  32.530  1.00  0.00     0.336 C 
ATOM      3  O   UNL     1     -11.217  60.483  32.472  1.00  0.00    -0.247 OA
ATOM      4  N   UNL     1      -9.875  62.322  32.613  1.00  0.00    -0.256 N 
ATOM      5  C   UNL     1      -9.667  63.517  33.289  1.00  0.00     0.268 C 
ATOM      6  O   UNL     1      -8.549  63.847  33.687  1.00  0.00    -0.268 OA
ATOM      7  C   UNL     1     -10.878  64.387  33.431  1.00  0.00     0.106 C 
ATOM      8  C   UNL     1     -10.822  65.571  34.099  1.00  0.00     0.128 C 
ATOM      9  N   UNL     1     -11.872  66.475  33.896  1.00  0.00    -0.297 N 
ATOM     10  C   UNL     1     -11.892  67.752  34.599  1.00  0.00     0.155 C 
ATOM     11  C   UNL     1     -12.859  66.280  32.936  1.00  0.00     0.256 C 
ATOM     12  O   UNL     1     -13.639  67.161  32.579  1.00  0.00    -0.269 OA
ATOM     13  C   UNL     1     -12.987  64.902  32.371  1.00  0.00     0.040 C 
ATOM     14  C   UNL     1     -14.145  64.745  31.424  1.00  0.00     0.053 C 
ATOM     15  C   UNL     1     -12.091  63.965  32.752  1.00  0.00     0.076 C 
ENDROOT
BRANCH   1  16
ATOM     16  C   UNL     1     -13.546  61.943  32.564  1.00  0.00     0.053 A 
ATOM     17  C   UNL     1     -15.436  60.953  31.367  1.00  0.00     0.043 A 
ATOM     18  C   UNL     1     -16.058  60.690  32.592  1.00  0.00     0.026 A 
ATOM     19  C   UNL     1     -14.191  61.589  31.363  1.00  0.00     0.053 A 
ATOM     20  C   UNL     1     -15.444  61.050  33.791  1.00  0.00     0.004 A 
ATOM     21  C   UNL     1     -14.197  61.672  33.777  1.00  0.00     0.027 A 
BRANCH  17  22
ATOM     22  N   UNL     1     -16.119  60.548  30.201  1.00  0.00    -0.326 N 
ATOM     23  C   UNL     1     -16.515  61.340  29.137  1.00  0.00     0.221 C 
ATOM     24  O   UNL     1     -16.352  62.548  29.015  1.00  0.00    -0.275 OA
ATOM     25  C   UNL     1     -17.202  60.536  28.062  1.00  0.00     0.114 C 
ATOM     26  H   UNL     1     -16.325  59.559  30.129  1.00  0.00     0.169 HD
ENDBRANCH  17  22
ENDBRANCH   1  16
BRANCH   4  27
ATOM     27  C   UNL     1      -8.710  61.476  32.394  1.00  0.00     0.096 C 
ATOM     28  C   UNL     1      -8.812  59.970  32.451  1.00  0.00     0.028 C 
ATOM     29  C   UNL     1      -8.070  60.703  33.524  1.00  0.00     0.028 C 
ENDBRANCH   4  27
BRANCH   8  30
ATOM     30  N   UNL     1      -9.743  65.953  34.887  1.00  0.00    -0.338 N 
ATOM     31  H   UNL     1      -9.314  65.181  35.382  1.00  0.00     0.168 HD
BRANCH  30  32
ATOM     32  C   UNL     1      -8.781  66.940  34.543  1.00  0.00     0.076 A 
ATOM     33  C   UNL     1      -8.234  67.706  35.585  1.00  0.00     0.030 A 
ATOM     34  C   UNL     1      -8.415  67.281  33.228  1.00  0.00     0.147 A 
ATOM     35  C   UNL     1      -7.326  68.741  35.328  1.00  0.00     0.017 A 
ATOM     36  C   UNL     1      -7.511  68.308  32.960  1.00  0.00     0.056 A 
ATOM     37  C   UNL     1      -6.967  69.035  34.014  1.00  0.00     0.016 A 
ATOM     38  F   UNL     1      -8.910  66.609  32.177  1.00  0.00    -0.205 F 
ATOM     39  I   UNL     1      -5.622  70.569  33.628  1.00  0.00    -0.044 I 
ENDBRANCH  30  32
ENDBRANCH   8  30
TORSDOF 5
ENDMDL
MODEL 10
REMARK minimizedAffinity -8.39396381
REMARK minimizedRMSD -1
REMARK SMILES CC(=O)Nc1cccc(-n2c(=O)n(C3CC3)c(=O)c3c(Nc4ccc(I)cc4F)n(C)c(=O)c(C)c32)c1
REMARK SMILES IDX 10 1 11 2 12 3 13 4 17 5 18 6 19 7 20 8 30 9 31 10 32 11
REMARK SMILES IDX 33 12 34 13 35 14 36 15 9 16 5 17 6 18 37 19 7 20 8 21 4 22
REMARK SMILES IDX 2 23 3 24 1 25 14 27 15 28 16 29 21 30 22 32 23 33 28 34
REMARK SMILES IDX 24 35 27 36 25 37 29 38 26 39
REMARK H PARENT 4 26 21 31
ROOT
ATOM      1  N   UNL     1     -12.782  65.642  32.873  1.00  0.00    -0.261 N 
ATOM      2  C   UNL     1     -13.672  64.997  31.983  1.00  0.00     0.336 C 
ATOM      3  O   UNL     1     -14.784  65.444  31.680  1.00  0.00    -0.247 OA
ATOM      4  N   UNL     1     -13.239  63.781  31.456  1.00  0.00    -0.256 N 
ATOM      5  C   UNL     1     -12.399  62.921  32.150  1.00  0.00     0.268 C 
ATOM      6  O   UNL     1     -12.329  61.723  31.873  1.00  0.00    -0.268 OA
ATOM      7  C   UNL     1     -11.549  63.571  33.199  1.00  0.00     0.106 C 
ATOM      8  C   UNL     1     -10.704  62.841  33.975  1.00  0.00     0.128 C 
ATOM      9  N   UNL     1      -9.708  63.535  34.673  1.00  0.00    -0.297 N 
ATOM     10  C   UNL     1      -8.784  62.821  35.545  1.00  0.00     0.155 C 
ATOM     11  C   UNL     1      -9.456  64.889  34.478  1.00  0.00     0.256 C 
ATOM     12  O   UNL     1      -8.446  65.455  34.892  1.00  0.00    -0.269 OA
ATOM     13  C   UNL     1     -10.514  65.677  33.774  1.00  0.00     0.040 C 
ATOM     14  C   UNL     1     -10.217  67.150  33.699  1.00  0.00     0.053 C 
ATOM     15  C   UNL     1     -11.593  65.020  33.294  1.00  0.00     0.076 C 
ENDROOT
BRANCH   1  16
ATOM     16  C   UNL     1     -13.280  66.851  33.504  1.00  0.00     0.053 A 
ATOM     17  C   UNL     1     -14.229  67.975  35.458  1.00  0.00     0.043 A 
ATOM     18  C   UNL     1     -14.232  69.180  34.749  1.00  0.00     0.026 A 
ATOM     19  C   UNL     1     -13.765  66.818  34.826  1.00  0.00     0.053 A 
ATOM     20  C   UNL     1     -13.773  69.229  33.432  1.00  0.00     0.004 A 
ATOM     21  C   UNL     1     -13.300  68.072  32.815  1.00  0.00     0.027 A 
BRANCH  17  22
ATOM     22  N   UNL     1     -14.700  68.013  36.788  1.00  0.00    -0.326 N 
ATOM     23  C   UNL     1     -15.851  67.431  37.292  1.00  0.00     0.221 C 
ATOM     24  O   UNL     1     -16.681  66.778  36.672  1.00  0.00    -0.275 OA
ATOM     25  C   UNL     1     -16.002  67.674  38.773  1.00  0.00     0.114 C 
ATOM     26  H   UNL     1     -14.117  68.508  37.451  1.00  0.00     0.169 HD
ENDBRANCH  17  22
ENDBRANCH   1  16
BRANCH   4  27
ATOM     27  C   UNL     1     -14.034  63.201  30.382  1.00  0.00     0.096 C 
ATOM     28  C   UNL     1     -13.382  62.500  29.214  1.00  0.00     0.028 C 
ATOM     29  C   UNL     1     -14.065  63.813  29.000  1.00  0.00     0.028 C 
ENDBRANCH   4  27
BRANCH   8  30
ATOM     30  N   UNL     1     -10.727  61.452  34.032  1.00  0.00    -0.338 N 
ATOM     31  H   UNL     1     -11.633  61.056  33.814  1.00  0.00     0.168 HD
BRANCH  30  32
ATOM     32  C   UNL     1      -9.676  60.594  33.611  1.00  0.00     0.076 A 
ATOM     33  C   UNL     1      -9.350  59.509  34.441  1.00  0.00     0.030 A 
ATOM     34  C   UNL     1      -8.868  60.809  32.480  1.00  0.00     0.147 A 
ATOM     35  C   UNL     1      -8.289  58.650  34.132  1.00  0.00     0.017 A 
ATOM     36  C   UNL     1      -7.809  59.960  32.162  1.00  0.00     0.056 A 
ATOM     37  C   UNL     1      -7.524  58.880  32.991  1.00  0.00     0.016 A 
ATOM     38  F   UNL     1      -9.102  61.835  31.648  1.00  0.00    -0.205 F 
ATOM     39  I   UNL     1      -5.947  57.609  32.529  1.00  0.00    -0.044 I 
ENDBRANCH  30  32
ENDBRANCH   8  30
TORSDOF 5
ENDMDL
MODEL 11
REMARK minimizedAffinity -8.32738018
REMARK minimizedRMSD -1
REMARK SMILES CC(=O)Nc1cccc(-n2c(=O)n(C3CC3)c(=O)c3c(Nc4ccc(I)cc4F)n(C)c(=O)c(C)c32)c1
REMARK SMILES IDX 10 1 11 2 12 3 13 4 17 5 18 6 19 7 20 8 30 9 31 10 32 11
REMARK SMILES IDX 33 12 34 13 35 14 36 15 9 16 5 17 6 18 37 19 7 20 8 21 4 22
REMARK SMILES IDX 2 23 3 24 1 25 14 27 15 28 16 29 21 30 22 32 23 33 28 34
REMARK SMILES IDX 24 35 27 36 25 37 29 38 26 39
REMARK H PARENT 4 26 21 31
ROOT
ATOM      1  N   UNL     1     -10.290  60.071  33.695  1.00  0.00    -0.261 N 
ATOM      2  C   UNL     1     -11.389  59.799  32.847  1.00  0.00     0.336 C 
ATOM      3  O   UNL     1     -11.584  58.704  32.307  1.00  0.00    -0.247 OA
ATOM      4  N   UNL     1     -12.266  60.858  32.618  1.00  0.00    -0.256 N 
ATOM      5  C   UNL     1     -11.853  62.184  32.613  1.00  0.00     0.268 C 
ATOM      6  O   UNL     1     -12.507  63.062  32.049  1.00  0.00    -0.268 OA
ATOM      7  C   UNL     1     -10.605  62.464  33.394  1.00  0.00     0.106 C 
ATOM      8  C   UNL     1     -10.072  63.714  33.447  1.00  0.00     0.128 C 
ATOM      9  N   UNL     1      -9.133  63.972  34.453  1.00  0.00    -0.297 N 
ATOM     10  C   UNL     1      -8.500  65.281  34.554  1.00  0.00     0.155 C 
ATOM     11  C   UNL     1      -8.855  63.068  35.473  1.00  0.00     0.256 C 
ATOM     12  O   UNL     1      -8.225  63.366  36.486  1.00  0.00    -0.269 OA
ATOM     13  C   UNL     1      -9.313  61.660  35.269  1.00  0.00     0.040 C 
ATOM     14  C   UNL     1      -8.879  60.722  36.363  1.00  0.00     0.053 C 
ATOM     15  C   UNL     1     -10.038  61.372  34.166  1.00  0.00     0.076 C 
ENDROOT
BRANCH   1  16
ATOM     16  C   UNL     1      -9.321  59.001  33.843  1.00  0.00     0.053 A 
ATOM     17  C   UNL     1      -8.654  56.884  34.871  1.00  0.00     0.043 A 
ATOM     18  C   UNL     1      -7.467  56.913  34.131  1.00  0.00     0.026 A 
ATOM     19  C   UNL     1      -9.566  57.935  34.730  1.00  0.00     0.053 A 
ATOM     20  C   UNL     1      -7.199  57.970  33.261  1.00  0.00     0.004 A 
ATOM     21  C   UNL     1      -8.121  59.006  33.118  1.00  0.00     0.027 A 
BRANCH  17  22
ATOM     22  N   UNL     1      -8.853  55.775  35.720  1.00  0.00    -0.326 N 
ATOM     23  C   UNL     1      -9.575  54.625  35.450  1.00  0.00     0.221 C 
ATOM     24  O   UNL     1     -10.184  54.359  34.421  1.00  0.00    -0.275 OA
ATOM     25  C   UNL     1      -9.537  53.654  36.604  1.00  0.00     0.114 C 
ATOM     26  H   UNL     1      -8.398  55.821  36.623  1.00  0.00     0.169 HD
ENDBRANCH  17  22
ENDBRANCH   1  16
BRANCH   4  27
ATOM     27  C   UNL     1     -13.511  60.553  31.926  1.00  0.00     0.096 C 
ATOM     28  C   UNL     1     -14.731  61.431  32.083  1.00  0.00     0.028 C 
ATOM     29  C   UNL     1     -14.728  60.055  32.671  1.00  0.00     0.028 C 
ENDBRANCH   4  27
BRANCH   8  30
ATOM     30  N   UNL     1     -10.480  64.755  32.619  1.00  0.00    -0.338 N 
ATOM     31  H   UNL     1     -10.753  64.448  31.694  1.00  0.00     0.168 HD
BRANCH  30  32
ATOM     32  C   UNL     1     -11.235  65.885  33.031  1.00  0.00     0.076 A 
ATOM     33  C   UNL     1     -12.510  65.652  33.573  1.00  0.00     0.030 A 
ATOM     34  C   UNL     1     -10.849  67.223  32.839  1.00  0.00     0.147 A 
ATOM     35  C   UNL     1     -13.346  66.711  33.947  1.00  0.00     0.017 A 
ATOM     36  C   UNL     1     -11.672  68.286  33.208  1.00  0.00     0.056 A 
ATOM     37  C   UNL     1     -12.920  68.025  33.764  1.00  0.00     0.016 A 
ATOM     38  F   UNL     1      -9.654  67.528  32.308  1.00  0.00    -0.205 F 
ATOM     39  I   UNL     1     -14.157  69.600  34.316  1.00  0.00    -0.044 I 
ENDBRANCH  30  32
ENDBRANCH   8  30
TORSDOF 5
ENDMDL
MODEL 12
REMARK minimizedAffinity -8.26444626
REMARK minimizedRMSD -1
REMARK SMILES CC(=O)Nc1cccc(-n2c(=O)n(C3CC3)c(=O)c3c(Nc4ccc(I)cc4F)n(C)c(=O)c(C)c32)c1
REMARK SMILES IDX 10 1 11 2 12 3 13 4 17 5 18 6 19 7 20 8 30 9 31 10 32 11
REMARK SMILES IDX 33 12 34 13 35 14 36 15 9 16 5 17 6 18 37 19 7 20 8 21 4 22
REMARK SMILES IDX 2 23 3 24 1 25 14 27 15 28 16 29 21 30 22 32 23 33 28 34
REMARK SMILES IDX 24 35 27 36 25 37 29 38 26 39
REMARK H PARENT 4 26 21 31
ROOT
ATOM      1  N   UNL     1      -7.860  54.517  33.610  1.00  0.00    -0.261 N 
ATOM      2  C   UNL     1      -8.742  54.063  34.618  1.00  0.00     0.336 C 
ATOM      3  O   UNL     1      -9.077  52.881  34.755  1.00  0.00    -0.247 OA
ATOM      4  N   UNL     1      -9.256  55.039  35.471  1.00  0.00    -0.256 N 
ATOM      5  C   UNL     1      -9.476  56.348  35.064  1.00  0.00     0.268 C 
ATOM      6  O   UNL     1     -10.259  57.088  35.661  1.00  0.00    -0.268 OA
ATOM      7  C   UNL     1      -8.646  56.801  33.901  1.00  0.00     0.106 C 
ATOM      8  C   UNL     1      -8.783  58.049  33.379  1.00  0.00     0.128 C 
ATOM      9  N   UNL     1      -7.759  58.515  32.545  1.00  0.00    -0.297 N 
ATOM     10  C   UNL     1      -7.851  59.833  31.930  1.00  0.00     0.155 C 
ATOM     11  C   UNL     1      -6.562  57.830  32.368  1.00  0.00     0.256 C 
ATOM     12  O   UNL     1      -5.568  58.330  31.843  1.00  0.00    -0.269 OA
ATOM     13  C   UNL     1      -6.534  56.399  32.799  1.00  0.00     0.040 C 
ATOM     14  C   UNL     1      -5.243  55.698  32.474  1.00  0.00     0.053 C 
ATOM     15  C   UNL     1      -7.626  55.889  33.410  1.00  0.00     0.076 C 
ENDROOT
BRANCH   1  16
ATOM     16  C   UNL     1      -7.415  53.517  32.658  1.00  0.00     0.053 A 
ATOM     17  C   UNL     1      -7.353  52.663  30.366  1.00  0.00     0.043 A 
ATOM     18  C   UNL     1      -6.551  51.601  30.796  1.00  0.00     0.026 A 
ATOM     19  C   UNL     1      -7.789  53.605  31.303  1.00  0.00     0.053 A 
ATOM     20  C   UNL     1      -6.185  51.487  32.138  1.00  0.00     0.004 A 
ATOM     21  C   UNL     1      -6.614  52.439  33.061  1.00  0.00     0.027 A 
BRANCH  17  22
ATOM     22  N   UNL     1      -7.669  52.712  28.992  1.00  0.00    -0.326 N 
ATOM     23  C   UNL     1      -8.587  53.538  28.367  1.00  0.00     0.221 C 
ATOM     24  O   UNL     1      -9.304  54.379  28.895  1.00  0.00    -0.275 OA
ATOM     25  C   UNL     1      -8.626  53.309  26.876  1.00  0.00     0.114 C 
ATOM     26  H   UNL     1      -7.149  52.081  28.395  1.00  0.00     0.169 HD
ENDBRANCH  17  22
ENDBRANCH   1  16
BRANCH   4  27
ATOM     27  C   UNL     1      -9.993  54.580  36.640  1.00  0.00     0.096 C 
ATOM     28  C   UNL     1      -9.385  54.633  38.022  1.00  0.00     0.028 C 
ATOM     29  C   UNL     1      -9.616  53.309  37.365  1.00  0.00     0.028 C 
ENDBRANCH   4  27
BRANCH   8  30
ATOM     30  N   UNL     1      -9.831  58.903  33.705  1.00  0.00    -0.338 N 
ATOM     31  H   UNL     1     -10.617  58.428  34.133  1.00  0.00     0.168 HD
BRANCH  30  32
ATOM     32  C   UNL     1      -9.690  60.222  34.210  1.00  0.00     0.076 A 
ATOM     33  C   UNL     1     -10.322  61.260  33.504  1.00  0.00     0.030 A 
ATOM     34  C   UNL     1      -8.879  60.583  35.301  1.00  0.00     0.147 A 
ATOM     35  C   UNL     1     -10.184  62.596  33.898  1.00  0.00     0.017 A 
ATOM     36  C   UNL     1      -8.735  61.911  35.702  1.00  0.00     0.056 A 
ATOM     37  C   UNL     1      -9.392  62.915  34.998  1.00  0.00     0.016 A 
ATOM     38  F   UNL     1      -8.226  59.653  36.014  1.00  0.00    -0.205 F 
ATOM     39  I   UNL     1      -9.183  64.896  35.584  1.00  0.00    -0.044 I 
ENDBRANCH  30  32
ENDBRANCH   8  30
TORSDOF 5
ENDMDL
MODEL 13
REMARK minimizedAffinity -8.26340008
REMARK minimizedRMSD -1
REMARK SMILES CC(=O)Nc1cccc(-n2c(=O)n(C3CC3)c(=O)c3c(Nc4ccc(I)cc4F)n(C)c(=O)c(C)c32)c1
REMARK SMILES IDX 10 1 11 2 12 3 13 4 17 5 18 6 19 7 20 8 30 9 31 10 32 11
REMARK SMILES IDX 33 12 34 13 35 14 36 15 9 16 5 17 6 18 37 19 7 20 8 21 4 22
REMARK SMILES IDX 2 23 3 24 1 25 14 27 15 28 16 29 21 30 22 32 23 33 28 34
REMARK SMILES IDX 24 35 27 36 25 37 29 38 26 39
REMARK H PARENT 4 26 21 31
ROOT
ATOM      1  N   UNL     1      -6.620  54.541  32.560  1.00  0.00    -0.261 N 
ATOM      2  C   UNL     1      -5.998  53.737  31.577  1.00  0.00     0.336 C 
ATOM      3  O   UNL     1      -6.531  52.746  31.063  1.00  0.00    -0.247 OA
ATOM      4  N   UNL     1      -4.705  54.106  31.209  1.00  0.00    -0.256 N 
ATOM      5  C   UNL     1      -3.824  54.720  32.088  1.00  0.00     0.268 C 
ATOM      6  O   UNL     1      -2.606  54.696  31.905  1.00  0.00    -0.268 OA
ATOM      7  C   UNL     1      -4.468  55.460  33.221  1.00  0.00     0.106 C 
ATOM      8  C   UNL     1      -3.721  56.081  34.174  1.00  0.00     0.128 C 
ATOM      9  N   UNL     1      -4.365  57.026  34.983  1.00  0.00    -0.297 N 
ATOM     10  C   UNL     1      -3.634  57.710  36.042  1.00  0.00     0.155 C 
ATOM     11  C   UNL     1      -5.665  57.459  34.746  1.00  0.00     0.256 C 
ATOM     12  O   UNL     1      -6.157  58.448  35.287  1.00  0.00    -0.269 OA
ATOM     13  C   UNL     1      -6.496  56.625  33.825  1.00  0.00     0.040 C 
ATOM     14  C   UNL     1      -7.920  57.096  33.706  1.00  0.00     0.053 C 
ATOM     15  C   UNL     1      -5.917  55.568  33.214  1.00  0.00     0.076 C 
ENDROOT
BRANCH   1  16
ATOM     16  C   UNL     1      -7.921  54.090  33.020  1.00  0.00     0.053 A 
ATOM     17  C   UNL     1      -9.359  53.283  34.826  1.00  0.00     0.043 A 
ATOM     18  C   UNL     1     -10.433  53.231  33.932  1.00  0.00     0.026 A 
ATOM     19  C   UNL     1      -8.109  53.700  34.360  1.00  0.00     0.053 A 
ATOM     20  C   UNL     1     -10.262  53.596  32.597  1.00  0.00     0.004 A 
ATOM     21  C   UNL     1      -9.014  54.023  32.144  1.00  0.00     0.027 A 
BRANCH  17  22
ATOM     22  N   UNL     1      -9.618  52.907  36.161  1.00  0.00    -0.326 N 
ATOM     23  C   UNL     1      -9.543  53.703  37.291  1.00  0.00     0.221 C 
ATOM     24  O   UNL     1      -9.230  54.887  37.342  1.00  0.00    -0.275 OA
ATOM     25  C   UNL     1      -9.917  52.944  38.540  1.00  0.00     0.114 C 
ATOM     26  H   UNL     1      -9.910  51.948  36.304  1.00  0.00     0.169 HD
ENDBRANCH  17  22
ENDBRANCH   1  16
BRANCH   4  27
ATOM     27  C   UNL     1      -4.123  53.432  30.057  1.00  0.00     0.096 C 
ATOM     28  C   UNL     1      -3.714  54.200  28.822  1.00  0.00     0.028 C 
ATOM     29  C   UNL     1      -4.887  53.275  28.762  1.00  0.00     0.028 C 
ENDBRANCH   4  27
BRANCH   8  30
ATOM     30  N   UNL     1      -2.351  55.891  34.316  1.00  0.00    -0.338 N 
ATOM     31  H   UNL     1      -2.027  55.009  33.937  1.00  0.00     0.168 HD
BRANCH  30  32
ATOM     32  C   UNL     1      -1.362  56.901  34.183  1.00  0.00     0.076 A 
ATOM     33  C   UNL     1      -1.786  58.175  33.768  1.00  0.00     0.030 A 
ATOM     34  C   UNL     1       0.021  56.697  34.333  1.00  0.00     0.147 A 
ATOM     35  C   UNL     1      -0.870  59.211  33.553  1.00  0.00     0.017 A 
ATOM     36  C   UNL     1       0.942  57.722  34.123  1.00  0.00     0.056 A 
ATOM     37  C   UNL     1       0.492  58.980  33.735  1.00  0.00     0.016 A 
ATOM     38  F   UNL     1       0.506  55.503  34.708  1.00  0.00    -0.205 F 
ATOM     39  I   UNL     1       1.854  60.514  33.416  1.00  0.00    -0.044 I 
ENDBRANCH  30  32
ENDBRANCH   8  30
TORSDOF 5
ENDMDL
MODEL 14
REMARK minimizedAffinity -8.09403515
REMARK minimizedRMSD -1
REMARK SMILES CC(=O)Nc1cccc(-n2c(=O)n(C3CC3)c(=O)c3c(Nc4ccc(I)cc4F)n(C)c(=O)c(C)c32)c1
REMARK SMILES IDX 10 1 11 2 12 3 13 4 17 5 18 6 19 7 20 8 30 9 31 10 32 11
REMARK SMILES IDX 33 12 34 13 35 14 36 15 9 16 5 17 6 18 37 19 7 20 8 21 4 22
REMARK SMILES IDX 2 23 3 24 1 25 14 27 15 28 16 29 21 30 22 32 23 33 28 34
REMARK SMILES IDX 24 35 27 36 25 37 29 38 26 39
REMARK H PARENT 4 26 21 31
ROOT
ATOM      1  N   UNL     1     -11.476  64.501  32.736  1.00  0.00    -0.261 N 
ATOM      2  C   UNL     1     -12.609  64.176  31.955  1.00  0.00     0.336 C 
ATOM      3  O   UNL     1     -13.483  64.991  31.641  1.00  0.00    -0.247 OA
ATOM      4  N   UNL     1     -12.718  62.844  31.555  1.00  0.00    -0.256 N 
ATOM      5  C   UNL     1     -12.223  61.792  32.313  1.00  0.00     0.268 C 
ATOM      6  O   UNL     1     -12.640  60.642  32.172  1.00  0.00    -0.268 OA
ATOM      7  C   UNL     1     -11.113  62.152  33.253  1.00  0.00     0.106 C 
ATOM      8  C   UNL     1     -10.558  61.224  34.078  1.00  0.00     0.128 C 
ATOM      9  N   UNL     1      -9.322  61.536  34.660  1.00  0.00    -0.297 N 
ATOM     10  C   UNL     1      -8.682  60.601  35.576  1.00  0.00     0.155 C 
ATOM     11  C   UNL     1      -8.585  62.660  34.305  1.00  0.00     0.256 C 
ATOM     12  O   UNL     1      -7.407  62.823  34.618  1.00  0.00    -0.269 OA
ATOM     13  C   UNL     1      -9.308  63.730  33.551  1.00  0.00     0.040 C 
ATOM     14  C   UNL     1      -8.475  64.957  33.300  1.00  0.00     0.053 C 
ATOM     15  C   UNL     1     -10.590  63.506  33.185  1.00  0.00     0.076 C 
ENDROOT
BRANCH   1  16
ATOM     16  C   UNL     1     -11.423  65.860  33.243  1.00  0.00     0.053 A 
ATOM     17  C   UNL     1     -10.297  68.029  33.357  1.00  0.00     0.043 A 
ATOM     18  C   UNL     1     -11.310  68.497  34.198  1.00  0.00     0.026 A 
ATOM     19  C   UNL     1     -10.355  66.710  32.895  1.00  0.00     0.053 A 
ATOM     20  C   UNL     1     -12.366  67.664  34.568  1.00  0.00     0.004 A 
ATOM     21  C   UNL     1     -12.422  66.355  34.093  1.00  0.00     0.027 A 
BRANCH  17  22
ATOM     22  N   UNL     1      -9.270  68.937  33.022  1.00  0.00    -0.326 N 
ATOM     23  C   UNL     1      -7.999  69.011  33.566  1.00  0.00     0.221 C 
ATOM     24  O   UNL     1      -7.531  68.302  34.449  1.00  0.00    -0.275 OA
ATOM     25  C   UNL     1      -7.178  70.104  32.930  1.00  0.00     0.114 C 
ATOM     26  H   UNL     1      -9.484  69.597  32.286  1.00  0.00     0.169 HD
ENDBRANCH  17  22
ENDBRANCH   1  16
BRANCH   4  27
ATOM     27  C   UNL     1     -13.752  62.525  30.580  1.00  0.00     0.096 C 
ATOM     28  C   UNL     1     -13.477  61.600  29.418  1.00  0.00     0.028 C 
ATOM     29  C   UNL     1     -13.700  63.057  29.167  1.00  0.00     0.028 C 
ENDBRANCH   4  27
BRANCH   8  30
ATOM     30  N   UNL     1     -11.109  59.966  34.293  1.00  0.00    -0.338 N 
ATOM     31  H   UNL     1     -12.106  59.929  34.121  1.00  0.00     0.168 HD
BRANCH  30  32
ATOM     32  C   UNL     1     -10.486  58.730  33.972  1.00  0.00     0.076 A 
ATOM     33  C   UNL     1     -10.604  57.683  34.901  1.00  0.00     0.030 A 
ATOM     34  C   UNL     1      -9.672  58.509  32.847  1.00  0.00     0.147 A 
ATOM     35  C   UNL     1      -9.970  56.452  34.692  1.00  0.00     0.017 A 
ATOM     36  C   UNL     1      -9.037  57.287  32.629  1.00  0.00     0.056 A 
ATOM     37  C   UNL     1      -9.190  56.260  33.554  1.00  0.00     0.016 A 
ATOM     38  F   UNL     1      -9.493  59.467  31.925  1.00  0.00    -0.205 F 
ATOM     39  I   UNL     1      -8.248  54.435  33.242  1.00  0.00    -0.044 I 
ENDBRANCH  30  32
ENDBRANCH   8  30
TORSDOF 5
ENDMDL
MODEL 15
REMARK minimizedAffinity -7.86559868
REMARK minimizedRMSD -1
REMARK SMILES CC(=O)Nc1cccc(-n2c(=O)n(C3CC3)c(=O)c3c(Nc4ccc(I)cc4F)n(C)c(=O)c(C)c32)c1
REMARK SMILES IDX 10 1 11 2 12 3 13 4 17 5 18 6 19 7 20 8 30 9 31 10 32 11
REMARK SMILES IDX 33 12 34 13 35 14 36 15 9 16 5 17 6 18 37 19 7 20 8 21 4 22
REMARK SMILES IDX 2 23 3 24 1 25 14 27 15 28 16 29 21 30 22 32 23 33 28 34
REMARK SMILES IDX 24 35 27 36 25 37 29 38 26 39
REMARK H PARENT 4 26 21 31
ROOT
ATOM      1  N   UNL     1      -8.719  63.398  34.208  1.00  0.00    -0.261 N 
ATOM      2  C   UNL     1      -7.610  64.194  34.579  1.00  0.00     0.336 C 
ATOM      3  O   UNL     1      -6.572  63.737  35.069  1.00  0.00    -0.247 OA
ATOM      4  N   UNL     1      -7.746  65.568  34.381  1.00  0.00    -0.256 N 
ATOM      5  C   UNL     1      -8.970  66.218  34.461  1.00  0.00     0.268 C 
ATOM      6  O   UNL     1      -9.046  67.429  34.670  1.00  0.00    -0.268 OA
ATOM      7  C   UNL     1     -10.168  65.352  34.209  1.00  0.00     0.106 C 
ATOM      8  C   UNL     1     -11.429  65.854  34.287  1.00  0.00     0.128 C 
ATOM      9  N   UNL     1     -12.459  65.100  33.710  1.00  0.00    -0.297 N 
ATOM     10  C   UNL     1     -13.839  65.562  33.779  1.00  0.00     0.155 C 
ATOM     11  C   UNL     1     -12.222  63.968  32.938  1.00  0.00     0.256 C 
ATOM     12  O   UNL     1     -13.079  63.440  32.231  1.00  0.00    -0.269 OA
ATOM     13  C   UNL     1     -10.861  63.357  33.038  1.00  0.00     0.040 C 
ATOM     14  C   UNL     1     -10.718  62.077  32.260  1.00  0.00     0.053 C 
ATOM     15  C   UNL     1      -9.928  63.982  33.789  1.00  0.00     0.076 C 
ENDROOT
BRANCH   1  16
ATOM     16  C   UNL     1      -8.618  61.984  34.516  1.00  0.00     0.053 A 
ATOM     17  C   UNL     1      -7.884  59.734  33.894  1.00  0.00     0.043 A 
ATOM     18  C   UNL     1      -8.396  59.247  35.101  1.00  0.00     0.026 A 
ATOM     19  C   UNL     1      -8.010  61.097  33.606  1.00  0.00     0.053 A 
ATOM     20  C   UNL     1      -9.018  60.107  36.006  1.00  0.00     0.004 A 
ATOM     21  C   UNL     1      -9.127  61.466  35.715  1.00  0.00     0.027 A 
BRANCH  17  22
ATOM     22  N   UNL     1      -7.262  58.801  33.039  1.00  0.00    -0.326 N 
ATOM     23  C   UNL     1      -6.047  58.165  33.225  1.00  0.00     0.221 C 
ATOM     24  O   UNL     1      -5.279  58.300  34.171  1.00  0.00    -0.275 OA
ATOM     25  C   UNL     1      -5.729  57.216  32.097  1.00  0.00     0.114 C 
ATOM     26  H   UNL     1      -7.775  58.557  32.201  1.00  0.00     0.169 HD
ENDBRANCH  17  22
ENDBRANCH   1  16
BRANCH   4  27
ATOM     27  C   UNL     1      -6.553  66.385  34.554  1.00  0.00     0.096 C 
ATOM     28  C   UNL     1      -6.297  67.593  33.683  1.00  0.00     0.028 C 
ATOM     29  C   UNL     1      -5.435  66.379  33.537  1.00  0.00     0.028 C 
ENDBRANCH   4  27
BRANCH   8  30
ATOM     30  N   UNL     1     -11.724  67.102  34.824  1.00  0.00    -0.338 N 
ATOM     31  H   UNL     1     -10.903  67.614  35.123  1.00  0.00     0.168 HD
BRANCH  30  32
ATOM     32  C   UNL     1     -12.735  67.982  34.353  1.00  0.00     0.076 A 
ATOM     33  C   UNL     1     -13.835  68.217  35.194  1.00  0.00     0.030 A 
ATOM     34  C   UNL     1     -12.771  68.550  33.067  1.00  0.00     0.147 A 
ATOM     35  C   UNL     1     -14.905  69.022  34.784  1.00  0.00     0.017 A 
ATOM     36  C   UNL     1     -13.831  69.354  32.648  1.00  0.00     0.056 A 
ATOM     37  C   UNL     1     -14.896  69.588  33.511  1.00  0.00     0.016 A 
ATOM     38  F   UNL     1     -11.767  68.355  32.197  1.00  0.00    -0.205 F 
ATOM     39  I   UNL     1     -16.481  70.781  32.898  1.00  0.00    -0.044 I 
ENDBRANCH  30  32
ENDBRANCH   8  30
TORSDOF 5
ENDMDL
MODEL 16
REMARK minimizedAffinity -7.84767866
REMARK minimizedRMSD -1
REMARK SMILES CC(=O)Nc1cccc(-n2c(=O)n(C3CC3)c(=O)c3c(Nc4ccc(I)cc4F)n(C)c(=O)c(C)c32)c1
REMARK SMILES IDX 10 1 11 2 12 3 13 4 17 5 18 6 19 7 20 8 30 9 31 10 32 11
REMARK SMILES IDX 33 12 34 13 35 14 36 15 9 16 5 17 6 18 37 19 7 20 8 21 4 22
REMARK SMILES IDX 2 23 3 24 1 25 14 27 15 28 16 29 21 30 22 32 23 33 28 34
REMARK SMILES IDX 24 35 27 36 25 37 29 38 26 39
REMARK H PARENT 4 26 21 31
ROOT
ATOM      1  N   UNL     1      -7.077  57.273  33.308  1.00  0.00    -0.261 N 
ATOM      2  C   UNL     1      -5.861  57.193  32.590  1.00  0.00     0.336 C 
ATOM      3  O   UNL     1      -5.458  58.074  31.823  1.00  0.00    -0.247 OA
ATOM      4  N   UNL     1      -5.115  56.029  32.772  1.00  0.00    -0.256 N 
ATOM      5  C   UNL     1      -5.700  54.800  33.046  1.00  0.00     0.268 C 
ATOM      6  O   UNL     1      -5.111  53.741  32.829  1.00  0.00    -0.268 OA
ATOM      7  C   UNL     1      -7.057  54.869  33.680  1.00  0.00     0.106 C 
ATOM      8  C   UNL     1      -7.757  53.740  33.972  1.00  0.00     0.128 C 
ATOM      9  N   UNL     1      -8.833  53.861  34.861  1.00  0.00    -0.297 N 
ATOM     10  C   UNL     1      -9.644  52.699  35.199  1.00  0.00     0.155 C 
ATOM     11  C   UNL     1      -9.101  55.031  35.562  1.00  0.00     0.256 C 
ATOM     12  O   UNL     1      -9.879  55.085  36.514  1.00  0.00    -0.269 OA
ATOM     13  C   UNL     1      -8.436  56.278  35.075  1.00  0.00     0.040 C 
ATOM     14  C   UNL     1      -8.862  57.516  35.815  1.00  0.00     0.053 C 
ATOM     15  C   UNL     1      -7.556  56.181  34.054  1.00  0.00     0.076 C 
ENDROOT
BRANCH   1  16
ATOM     16  C   UNL     1      -7.902  58.434  33.032  1.00  0.00     0.053 A 
ATOM     17  C   UNL     1      -8.254  60.852  33.153  1.00  0.00     0.043 A 
ATOM     18  C   UNL     1      -9.477  60.695  32.493  1.00  0.00     0.026 A 
ATOM     19  C   UNL     1      -7.482  59.719  33.428  1.00  0.00     0.053 A 
ATOM     20  C   UNL     1      -9.918  59.428  32.110  1.00  0.00     0.004 A 
ATOM     21  C   UNL     1      -9.136  58.306  32.377  1.00  0.00     0.027 A 
BRANCH  17  22
ATOM     22  N   UNL     1      -7.875  62.166  33.498  1.00  0.00    -0.326 N 
ATOM     23  C   UNL     1      -8.020  62.792  34.724  1.00  0.00     0.221 C 
ATOM     24  O   UNL     1      -8.513  62.319  35.741  1.00  0.00    -0.275 OA
ATOM     25  C   UNL     1      -7.472  64.197  34.707  1.00  0.00     0.114 C 
ATOM     26  H   UNL     1      -7.430  62.706  32.766  1.00  0.00     0.169 HD
ENDBRANCH  17  22
ENDBRANCH   1  16
BRANCH   4  27
ATOM     27  C   UNL     1      -3.768  56.008  32.217  1.00  0.00     0.096 C 
ATOM     28  C   UNL     1      -2.658  55.227  32.880  1.00  0.00     0.028 C 
ATOM     29  C   UNL     1      -2.622  56.722  32.895  1.00  0.00     0.028 C 
ENDBRANCH   4  27
BRANCH   8  30
ATOM     30  N   UNL     1      -7.401  52.478  33.508  1.00  0.00    -0.338 N 
ATOM     31  H   UNL     1      -7.387  51.773  34.234  1.00  0.00     0.168 HD
BRANCH  30  32
ATOM     32  C   UNL     1      -7.786  51.923  32.259  1.00  0.00     0.076 A 
ATOM     33  C   UNL     1      -6.883  51.050  31.630  1.00  0.00     0.030 A 
ATOM     34  C   UNL     1      -8.955  52.263  31.554  1.00  0.00     0.147 A 
ATOM     35  C   UNL     1      -7.157  50.506  30.369  1.00  0.00     0.017 A 
ATOM     36  C   UNL     1      -9.238  51.727  30.299  1.00  0.00     0.056 A 
ATOM     37  C   UNL     1      -8.336  50.847  29.710  1.00  0.00     0.016 A 
ATOM     38  F   UNL     1      -9.858  53.106  32.079  1.00  0.00    -0.205 F 
ATOM     39  I   UNL     1      -8.745  50.043  27.839  1.00  0.00    -0.044 I 
ENDBRANCH  30  32
ENDBRANCH   8  30
TORSDOF 5
ENDMDL
MODEL 17
REMARK minimizedAffinity -7.71649885
REMARK minimizedRMSD -1
REMARK SMILES CC(=O)Nc1cccc(-n2c(=O)n(C3CC3)c(=O)c3c(Nc4ccc(I)cc4F)n(C)c(=O)c(C)c32)c1
REMARK SMILES IDX 10 1 11 2 12 3 13 4 17 5 18 6 19 7 20 8 30 9 31 10 32 11
REMARK SMILES IDX 33 12 34 13 35 14 36 15 9 16 5 17 6 18 37 19 7 20 8 21 4 22
REMARK SMILES IDX 2 23 3 24 1 25 14 27 15 28 16 29 21 30 22 32 23 33 28 34
REMARK SMILES IDX 24 35 27 36 25 37 29 38 26 39
REMARK H PARENT 4 26 21 31
ROOT
ATOM      1  N   UNL     1     -11.243  62.438  33.497  1.00  0.00    -0.261 N 
ATOM      2  C   UNL     1     -12.538  61.996  33.139  1.00  0.00     0.336 C 
ATOM      3  O   UNL     1     -12.784  60.859  32.721  1.00  0.00    -0.247 OA
ATOM      4  N   UNL     1     -13.562  62.934  33.260  1.00  0.00    -0.256 N 
ATOM      5  C   UNL     1     -13.353  64.296  33.091  1.00  0.00     0.268 C 
ATOM      6  O   UNL     1     -14.278  65.063  32.818  1.00  0.00    -0.268 OA
ATOM      7  C   UNL     1     -11.948  64.759  33.330  1.00  0.00     0.106 C 
ATOM      8  C   UNL     1     -11.598  66.063  33.168  1.00  0.00     0.128 C 
ATOM      9  N   UNL     1     -10.386  66.480  33.734  1.00  0.00    -0.297 N 
ATOM     10  C   UNL     1      -9.934  67.856  33.577  1.00  0.00     0.155 C 
ATOM     11  C   UNL     1      -9.629  65.669  34.572  1.00  0.00     0.256 C 
ATOM     12  O   UNL     1      -8.702  66.090  35.263  1.00  0.00    -0.269 OA
ATOM     13  C   UNL     1      -9.947  64.209  34.566  1.00  0.00     0.040 C 
ATOM     14  C   UNL     1      -9.015  63.386  35.413  1.00  0.00     0.053 C 
ATOM     15  C   UNL     1     -10.996  63.782  33.829  1.00  0.00     0.076 C 
ENDROOT
BRANCH   1  16
ATOM     16  C   UNL     1     -10.164  61.495  33.265  1.00  0.00     0.053 A 
ATOM     17  C   UNL     1      -8.996  59.431  33.868  1.00  0.00     0.043 A 
ATOM     18  C   UNL     1      -8.094  59.651  32.823  1.00  0.00     0.026 A 
ATOM     19  C   UNL     1     -10.017  60.362  34.088  1.00  0.00     0.053 A 
ATOM     20  C   UNL     1      -8.212  60.778  32.009  1.00  0.00     0.004 A 
ATOM     21  C   UNL     1      -9.240  61.693  32.229  1.00  0.00     0.027 A 
BRANCH  17  22
ATOM     22  N   UNL     1      -8.814  58.264  34.638  1.00  0.00    -0.326 N 
ATOM     23  C   UNL     1      -9.130  56.963  34.286  1.00  0.00     0.221 C 
ATOM     24  O   UNL     1      -9.638  56.584  33.237  1.00  0.00    -0.275 OA
ATOM     25  C   UNL     1      -8.763  55.981  35.371  1.00  0.00     0.114 C 
ATOM     26  H   UNL     1      -8.384  58.394  35.545  1.00  0.00     0.169 HD
ENDBRANCH  17  22
ENDBRANCH   1  16
BRANCH   4  27
ATOM     27  C   UNL     1     -14.928  62.452  33.103  1.00  0.00     0.096 C 
ATOM     28  C   UNL     1     -16.052  62.987  33.958  1.00  0.00     0.028 C 
ATOM     29  C   UNL     1     -15.584  61.579  34.147  1.00  0.00     0.028 C 
ENDBRANCH   4  27
BRANCH   8  30
ATOM     30  N   UNL     1     -12.418  67.005  32.556  1.00  0.00    -0.338 N 
ATOM     31  H   UNL     1     -12.853  66.667  31.707  1.00  0.00     0.168 HD
BRANCH  30  32
ATOM     32  C   UNL     1     -13.261  67.925  33.235  1.00  0.00     0.076 A 
ATOM     33  C   UNL     1     -13.840  68.957  32.476  1.00  0.00     0.030 A 
ATOM     34  C   UNL     1     -13.474  67.946  34.624  1.00  0.00     0.147 A 
ATOM     35  C   UNL     1     -14.634  69.942  33.076  1.00  0.00     0.017 A 
ATOM     36  C   UNL     1     -14.264  68.921  35.232  1.00  0.00     0.056 A 
ATOM     37  C   UNL     1     -14.844  69.917  34.453  1.00  0.00     0.016 A 
ATOM     38  F   UNL     1     -12.939  67.007  35.420  1.00  0.00    -0.205 F 
ATOM     39  I   UNL     1     -16.020  71.377  35.346  1.00  0.00    -0.044 I 
ENDBRANCH  30  32
ENDBRANCH   8  30
TORSDOF 5
ENDMDL
MODEL 18
REMARK minimizedAffinity -7.68898344
REMARK minimizedRMSD -1
REMARK SMILES CC(=O)Nc1cccc(-n2c(=O)n(C3CC3)c(=O)c3c(Nc4ccc(I)cc4F)n(C)c(=O)c(C)c32)c1
REMARK SMILES IDX 10 1 11 2 12 3 13 4 17 5 18 6 19 7 20 8 30 9 31 10 32 11
REMARK SMILES IDX 33 12 34 13 35 14 36 15 9 16 5 17 6 18 37 19 7 20 8 21 4 22
REMARK SMILES IDX 2 23 3 24 1 25 14 27 15 28 16 29 21 30 22 32 23 33 28 34
REMARK SMILES IDX 24 35 27 36 25 37 29 38 26 39
REMARK H PARENT 4 26 21 31
ROOT
ATOM      1  N   UNL     1     -11.266  63.561  32.939  1.00  0.00    -0.261 N 
ATOM      2  C   UNL     1     -10.195  64.288  33.509  1.00  0.00     0.336 C 
ATOM      3  O   UNL     1      -9.232  63.759  34.076  1.00  0.00    -0.247 OA
ATOM      4  N   UNL     1     -10.279  65.677  33.422  1.00  0.00    -0.256 N 
ATOM      5  C   UNL     1     -11.491  66.354  33.414  1.00  0.00     0.268 C 
ATOM      6  O   UNL     1     -11.568  67.544  33.721  1.00  0.00    -0.268 OA
ATOM      7  C   UNL     1     -12.666  65.551  32.946  1.00  0.00     0.106 C 
ATOM      8  C   UNL     1     -13.918  66.081  32.918  1.00  0.00     0.128 C 
ATOM      9  N   UNL     1     -14.885  65.412  32.158  1.00  0.00    -0.297 N 
ATOM     10  C   UNL     1     -16.255  65.908  32.105  1.00  0.00     0.155 C 
ATOM     11  C   UNL     1     -14.578  64.345  31.320  1.00  0.00     0.256 C 
ATOM     12  O   UNL     1     -15.354  63.906  30.473  1.00  0.00    -0.269 OA
ATOM     13  C   UNL     1     -13.252  63.687  31.525  1.00  0.00     0.040 C 
ATOM     14  C   UNL     1     -13.041  62.476  30.657  1.00  0.00     0.053 C 
ATOM     15  C   UNL     1     -12.405  64.216  32.435  1.00  0.00     0.076 C 
ENDROOT
BRANCH   1  16
ATOM     16  C   UNL     1     -11.230  62.123  33.128  1.00  0.00     0.053 A 
ATOM     17  C   UNL     1     -10.046  59.993  32.911  1.00  0.00     0.043 A 
ATOM     18  C   UNL     1     -11.134  59.342  33.501  1.00  0.00     0.026 A 
ATOM     19  C   UNL     1     -10.108  61.377  32.718  1.00  0.00     0.053 A 
ATOM     20  C   UNL     1     -12.261  60.061  33.897  1.00  0.00     0.004 A 
ATOM     21  C   UNL     1     -12.308  61.442  33.712  1.00  0.00     0.027 A 
BRANCH  17  22
ATOM     22  N   UNL     1      -8.941  59.195  32.548  1.00  0.00    -0.326 N 
ATOM     23  C   UNL     1      -7.682  59.185  33.125  1.00  0.00     0.221 C 
ATOM     24  O   UNL     1      -7.291  59.876  34.058  1.00  0.00    -0.275 OA
ATOM     25  C   UNL     1      -6.773  58.174  32.472  1.00  0.00     0.114 C 
ATOM     26  H   UNL     1      -9.095  58.542  31.790  1.00  0.00     0.169 HD
ENDBRANCH  17  22
ENDBRANCH   1  16
BRANCH   4  27
ATOM     27  C   UNL     1      -9.100  66.440  33.807  1.00  0.00     0.096 C 
ATOM     28  C   UNL     1      -8.650  67.643  33.012  1.00  0.00     0.028 C 
ATOM     29  C   UNL     1      -7.827  66.394  32.994  1.00  0.00     0.028 C 
ENDBRANCH   4  27
BRANCH   8  30
ATOM     30  N   UNL     1     -14.251  67.286  33.527  1.00  0.00    -0.338 N 
ATOM     31  H   UNL     1     -14.836  67.878  32.951  1.00  0.00     0.168 HD
BRANCH  30  32
ATOM     32  C   UNL     1     -14.545  67.458  34.905  1.00  0.00     0.076 A 
ATOM     33  C   UNL     1     -15.104  66.367  35.591  1.00  0.00     0.030 A 
ATOM     34  C   UNL     1     -14.418  68.669  35.610  1.00  0.00     0.147 A 
ATOM     35  C   UNL     1     -15.481  66.470  36.936  1.00  0.00     0.017 A 
ATOM     36  C   UNL     1     -14.789  68.782  36.949  1.00  0.00     0.056 A 
ATOM     37  C   UNL     1     -15.318  67.678  37.609  1.00  0.00     0.016 A 
ATOM     38  F   UNL     1     -13.911  69.762  35.019  1.00  0.00    -0.205 F 
ATOM     39  I   UNL     1     -15.877  67.835  39.604  1.00  0.00    -0.044 I 
ENDBRANCH  30  32
ENDBRANCH   8  30
TORSDOF 5
ENDMDL
MODEL 19
REMARK minimizedAffinity -7.58881426
REMARK minimizedRMSD -1
REMARK SMILES CC(=O)Nc1cccc(-n2c(=O)n(C3CC3)c(=O)c3c(Nc4ccc(I)cc4F)n(C)c(=O)c(C)c32)c1
REMARK SMILES IDX 10 1 11 2 12 3 13 4 17 5 18 6 19 7 20 8 30 9 31 10 32 11
REMARK SMILES IDX 33 12 34 13 35 14 36 15 9 16 5 17 6 18 37 19 7 20 8 21 4 22
REMARK SMILES IDX 2 23 3 24 1 25 14 27 15 28 16 29 21 30 22 32 23 33 28 34
REMARK SMILES IDX 24 35 27 36 25 37 29 38 26 39
REMARK H PARENT 4 26 21 31
ROOT
ATOM      1  N   UNL     1     -10.445  59.994  33.667  1.00  0.00    -0.261 N 
ATOM      2  C   UNL     1     -11.632  60.059  32.901  1.00  0.00     0.336 C 
ATOM      3  O   UNL     1     -11.939  59.229  32.038  1.00  0.00    -0.247 OA
ATOM      4  N   UNL     1     -12.466  61.149  33.151  1.00  0.00    -0.256 N 
ATOM      5  C   UNL     1     -11.981  62.382  33.564  1.00  0.00     0.268 C 
ATOM      6  O   UNL     1     -12.635  63.416  33.415  1.00  0.00    -0.268 OA
ATOM      7  C   UNL     1     -10.652  62.345  34.254  1.00  0.00     0.106 C 
ATOM      8  C   UNL     1     -10.046  63.486  34.681  1.00  0.00     0.128 C 
ATOM      9  N   UNL     1      -9.003  63.354  35.607  1.00  0.00    -0.297 N 
ATOM     10  C   UNL     1      -8.291  64.531  36.088  1.00  0.00     0.155 C 
ATOM     11  C   UNL     1      -8.682  62.144  36.211  1.00  0.00     0.256 C 
ATOM     12  O   UNL     1      -7.943  62.052  37.190  1.00  0.00    -0.269 OA
ATOM     13  C   UNL     1      -9.235  60.907  35.580  1.00  0.00     0.040 C 
ATOM     14  C   UNL     1      -8.755  59.635  36.226  1.00  0.00     0.053 C 
ATOM     15  C   UNL     1     -10.077  61.040  34.531  1.00  0.00     0.076 C 
ENDROOT
BRANCH   1  16
ATOM     16  C   UNL     1      -9.528  58.921  33.327  1.00  0.00     0.053 A 
ATOM     17  C   UNL     1      -8.997  56.534  33.277  1.00  0.00     0.043 A 
ATOM     18  C   UNL     1      -7.776  56.831  32.663  1.00  0.00     0.026 A 
ATOM     19  C   UNL     1      -9.858  57.583  33.616  1.00  0.00     0.053 A 
ATOM     20  C   UNL     1      -7.424  58.152  32.386  1.00  0.00     0.004 A 
ATOM     21  C   UNL     1      -8.295  59.189  32.716  1.00  0.00     0.027 A 
BRANCH  17  22
ATOM     22  N   UNL     1      -9.281  55.172  33.514  1.00  0.00    -0.326 N 
ATOM     23  C   UNL     1      -9.829  54.611  34.654  1.00  0.00     0.221 C 
ATOM     24  O   UNL     1     -10.162  55.195  35.679  1.00  0.00    -0.275 OA
ATOM     25  C   UNL     1     -10.003  53.119  34.519  1.00  0.00     0.114 C 
ATOM     26  H   UNL     1      -9.077  54.538  32.752  1.00  0.00     0.169 HD
ENDBRANCH  17  22
ENDBRANCH   1  16
BRANCH   4  27
ATOM     27  C   UNL     1     -13.786  61.131  32.535  1.00  0.00     0.096 C 
ATOM     28  C   UNL     1     -14.978  61.760  33.218  1.00  0.00     0.028 C 
ATOM     29  C   UNL     1     -14.903  60.272  33.082  1.00  0.00     0.028 C 
ENDBRANCH   4  27
BRANCH   8  30
ATOM     30  N   UNL     1     -10.471  64.759  34.317  1.00  0.00    -0.338 N 
ATOM     31  H   UNL     1     -11.313  65.053  34.795  1.00  0.00     0.168 HD
BRANCH  30  32
ATOM     32  C   UNL     1      -9.619  65.863  34.048  1.00  0.00     0.076 A 
ATOM     33  C   UNL     1      -9.819  67.035  34.796  1.00  0.00     0.030 A 
ATOM     34  C   UNL     1      -8.664  65.909  33.017  1.00  0.00     0.147 A 
ATOM     35  C   UNL     1      -9.065  68.190  34.553  1.00  0.00     0.017 A 
ATOM     36  C   UNL     1      -7.907  67.054  32.766  1.00  0.00     0.056 A 
ATOM     37  C   UNL     1      -8.110  68.192  33.539  1.00  0.00     0.016 A 
ATOM     38  F   UNL     1      -8.429  64.837  32.244  1.00  0.00    -0.205 F 
ATOM     39  I   UNL     1      -6.992  69.904  33.175  1.00  0.00    -0.044 I 
ENDBRANCH  30  32
ENDBRANCH   8  30
TORSDOF 5
ENDMDL
MODEL 20
REMARK minimizedAffinity -7.46540642
REMARK minimizedRMSD -1
REMARK SMILES CC(=O)Nc1cccc(-n2c(=O)n(C3CC3)c(=O)c3c(Nc4ccc(I)cc4F)n(C)c(=O)c(C)c32)c1
REMARK SMILES IDX 10 1 11 2 12 3 13 4 17 5 18 6 19 7 20 8 30 9 31 10 32 11
REMARK SMILES IDX 33 12 34 13 35 14 36 15 9 16 5 17 6 18 37 19 7 20 8 21 4 22
REMARK SMILES IDX 2 23 3 24 1 25 14 27 15 28 16 29 21 30 22 32 23 33 28 34
REMARK SMILES IDX 24 35 27 36 25 37 29 38 26 39
REMARK H PARENT 4 26 21 31
ROOT
ATOM      1  N   UNL     1     -14.661  64.794  32.954  1.00  0.00    -0.261 N 
ATOM      2  C   UNL     1     -15.335  64.069  31.944  1.00  0.00     0.336 C 
ATOM      3  O   UNL     1     -16.557  63.880  31.935  1.00  0.00    -0.247 OA
ATOM      4  N   UNL     1     -14.537  63.538  30.932  1.00  0.00    -0.256 N 
ATOM      5  C   UNL     1     -13.225  63.137  31.146  1.00  0.00     0.268 C 
ATOM      6  O   UNL     1     -12.662  62.340  30.395  1.00  0.00    -0.268 OA
ATOM      7  C   UNL     1     -12.540  63.795  32.305  1.00  0.00     0.106 C 
ATOM      8  C   UNL     1     -11.264  63.472  32.646  1.00  0.00     0.128 C 
ATOM      9  N   UNL     1     -10.581  64.353  33.494  1.00  0.00    -0.297 N 
ATOM     10  C   UNL     1      -9.220  64.057  33.924  1.00  0.00     0.155 C 
ATOM     11  C   UNL     1     -11.091  65.595  33.858  1.00  0.00     0.256 C 
ATOM     12  O   UNL     1     -10.416  66.472  34.395  1.00  0.00    -0.269 OA
ATOM     13  C   UNL     1     -12.549  65.821  33.621  1.00  0.00     0.040 C 
ATOM     14  C   UNL     1     -13.046  67.143  34.140  1.00  0.00     0.053 C 
ATOM     15  C   UNL     1     -13.256  64.855  32.993  1.00  0.00     0.076 C 
ENDROOT
BRANCH   1  16
ATOM     16  C   UNL     1     -15.479  65.250  34.062  1.00  0.00     0.053 A 
ATOM     17  C   UNL     1     -16.223  65.005  36.380  1.00  0.00     0.043 A 
ATOM     18  C   UNL     1     -17.041  66.128  36.223  1.00  0.00     0.026 A 
ATOM     19  C   UNL     1     -15.458  64.568  35.294  1.00  0.00     0.053 A 
ATOM     20  C   UNL     1     -17.090  66.806  35.005  1.00  0.00     0.004 A 
ATOM     21  C   UNL     1     -16.313  66.370  33.933  1.00  0.00     0.027 A 
BRANCH  17  22
ATOM     22  N   UNL     1     -16.224  64.382  37.646  1.00  0.00    -0.326 N 
ATOM     23  C   UNL     1     -15.965  63.053  37.932  1.00  0.00     0.221 C 
ATOM     24  O   UNL     1     -15.692  62.164  37.133  1.00  0.00    -0.275 OA
ATOM     25  C   UNL     1     -16.039  62.771  39.412  1.00  0.00     0.114 C 
ATOM     26  H   UNL     1     -16.419  64.984  38.436  1.00  0.00     0.169 HD
ENDBRANCH  17  22
ENDBRANCH   1  16
BRANCH   4  27
ATOM     27  C   UNL     1     -15.218  62.972  29.775  1.00  0.00     0.096 C 
ATOM     28  C   UNL     1     -14.643  63.103  28.384  1.00  0.00     0.028 C 
ATOM     29  C   UNL     1     -15.888  63.851  28.743  1.00  0.00     0.028 C 
ENDBRANCH   4  27
BRANCH   8  30
ATOM     30  N   UNL     1     -10.588  62.374  32.126  1.00  0.00    -0.338 N 
ATOM     31  H   UNL     1      -9.766  62.625  31.591  1.00  0.00     0.168 HD
BRANCH  30  32
ATOM     32  C   UNL     1     -10.412  61.129  32.786  1.00  0.00     0.076 A 
ATOM     33  C   UNL     1      -9.133  60.549  32.748  1.00  0.00     0.030 A 
ATOM     34  C   UNL     1     -11.443  60.382  33.383  1.00  0.00     0.147 A 
ATOM     35  C   UNL     1      -8.886  59.295  33.320  1.00  0.00     0.017 A 
ATOM     36  C   UNL     1     -11.209  59.133  33.957  1.00  0.00     0.056 A 
ATOM     37  C   UNL     1      -9.927  58.594  33.925  1.00  0.00     0.016 A 
ATOM     38  F   UNL     1     -12.696  60.859  33.442  1.00  0.00    -0.205 F 
ATOM     39  I   UNL     1      -9.565  56.733  34.774  1.00  0.00    -0.044 I 
ENDBRANCH  30  32
ENDBRANCH   8  30
TORSDOF 5
ENDMDL
