@<TRIPOS>MOLECULE
/Users/favourigwezeke/Personal_System/Research/Dr. Charles Nnadi/CASPID/DATA/DOCKING/LIGANDS/afatinib.pdbqt
 36 39 0 0 0
SMALL
GASTEIGER

@<TRIPOS>ATOM
      1  C          1.5570   -1.1430   -0.1830 C.2     1  UNL1        0.2480
      2  O          0.9700   -2.1480    0.2010 O.2     1  UNL1       -0.2700
      3  N          1.0870    0.1470   -0.1750 N.am    1  UNL1       -0.3190
      4  H          1.7440    0.8980   -0.3710 H       1  UNL1        0.1700
      5  C          2.9690   -1.2640   -0.6400 C.2     1  UNL1        0.0680
      6  C          3.4610   -0.5830   -1.6890 C.2     1  UNL1       -0.0060
      7  C          4.8390   -0.6230   -2.2990 C.3     1  UNL1        0.1110
      8  N          5.9080   -1.4320   -1.7310 N.3     1  UNL1       -0.3060
      9  C          5.7300   -2.8690   -1.8690 C.3     1  UNL1        0.1050
     10  C          6.3490   -1.0270   -0.4060 C.3     1  UNL1        0.1050
     11  C         -0.2090    0.5940    0.1590 C.2     1  UNL1        0.0850
     12  C         -1.2930   -0.2600    0.3510 C.2     1  UNL1        0.0440
     13  C         -0.3990    1.9770    0.2890 C.2     1  UNL1        0.1450
     14  C         -2.5770    0.2510    0.6760 C.2     1  UNL1        0.0450
     15  C         -1.6680    2.4760    0.5900 C.2     1  UNL1        0.0770
     16  C         -3.7320   -0.5300    0.8880 C.2     1  UNL1        0.1410
     17  C         -2.7560    1.6360    0.7860 C.2     1  UNL1        0.0800
     18  N         -4.9250    0.0300    1.1560 N.2     1  UNL1       -0.2190
     19  N         -3.9350    2.1950    1.0680 N.2     1  UNL1       -0.2360
     20  C         -4.9670    1.3630    1.2350 C.2     1  UNL1        0.2240
     21  O          0.7100    2.7600    0.0720 O.2     1  UNL1       -0.4860
     22  C          0.7530    4.0270    0.7480 C.3     1  UNL1        0.2010
     23  C          2.2100    4.3530    1.0070 C.3     1  UNL1        0.0760
     24  C          0.3420    5.1620   -0.1840 C.3     1  UNL1        0.2050
     25  C          2.6520    4.9210   -0.3230 C.3     1  UNL1        0.1640
     26  O          1.5280    5.6300   -0.8530 O.3     1  UNL1       -0.3770
     27  N         -3.6340   -1.9460    0.8090 N.pl3   1  UNL1       -0.3400
     28  H         -2.8590   -2.2620    1.3840 H       1  UNL1        0.1680
     29  C         -4.6800   -2.8930    0.7540 C.2     1  UNL1        0.0410
     30  C         -4.4580   -4.1860    1.2560 C.2     1  UNL1        0.0290
     31  C         -5.9080   -2.6230    0.1310 C.2     1  UNL1        0.0490
     32  C         -5.4520   -5.1660    1.1840 C.2     1  UNL1        0.0430
     33  C         -6.9030   -3.6010    0.0570 C.2     1  UNL1        0.0780
     34  C         -6.6710   -4.8660    0.5860 C.2     1  UNL1        0.1410
     35  Cl        -8.4060   -3.2310   -0.7010 Cl      1  UNL1       -0.0810
     36  F         -7.6120   -5.8200    0.5280 F       1  UNL1       -0.2050
@<TRIPOS>BOND
     1     7     8    1
     2     7     6    1
     3     9     8    1
     4     8    10    1
     5     6     5    2
     6    26    25    1
     7    26    24    1
     8    35    33    1
     9     5     1    1
    10     4     3    1
    11    25    23    1
    12    24    22    1
    13     1     3   am
    14     1     2    2
    15     3    11    1
    16    33    31    1
    17    33    34    2
    18    21    13    1
    19    21    22    1
    20    31    29    2
    21    11    13    2
    22    11    12    1
    23    13    15    1
    24    12    14    2
    25    36    34    1
    26    34    32    1
    27    15    17    2
    28    14    17    1
    29    14    16    1
    30    22    23    1
    31    29    27    1
    32    29    30    1
    33    17    19    1
    34    27    16    1
    35    27    28    1
    36    16    18    2
    37    19    20    2
    38    18    20    1
    39    32    30    2
