@<TRIPOS>MOLECULE
/Users/favourigwezeke/Personal_System/Research/Dr. Charles Nnadi/CASPID/DATA/DOCKING/LIGANDS/axitinib.pdbqt
 30 33 0 0 0
SMALL
GASTEIGER

@<TRIPOS>ATOM
      1  S         -3.3860    1.3550   -1.0910 S.3     1  UNL1       -0.0890
      2  C         -3.9790    1.3300    0.6000 C.2     1  UNL1        0.0250
      3  C         -4.6550    0.2430    1.1820 C.2     1  UNL1        0.0530
      4  C         -5.0280    0.2880    2.5350 C.2     1  UNL1        0.0150
      5  C         -4.7610    1.4190    3.3050 C.2     1  UNL1        0.0010
      6  C         -3.7230    2.4630    1.3890 C.2     1  UNL1        0.0160
      7  C         -4.1130    2.5090    2.7290 C.2     1  UNL1        0.0010
      8  C         -4.9890   -1.0070    0.4560 C.2     1  UNL1        0.2520
      9  N         -5.6430   -0.8570   -0.7460 N.am    1  UNL1       -0.3550
     10  O         -4.7020   -2.0910    0.9520 O.2     1  UNL1       -0.2690
     11  C         -5.9240   -1.9880   -1.5910 C.3     1  UNL1        0.1430
     12  H         -5.7110    0.0710   -1.1480 H       1  UNL1        0.1630
     13  C         -1.7050    0.7930   -0.8520 C.2     1  UNL1        0.0140
     14  C         -0.6500    1.6840   -1.0770 C.2     1  UNL1        0.0160
     15  C         -1.4460   -0.5290   -0.4650 C.2     1  UNL1        0.0430
     16  C          0.6840    1.2850   -0.9040 C.2     1  UNL1        0.0140
     17  C         -0.1080   -0.9000   -0.2900 C.ar    1  UNL1        0.0670
     18  C          0.9590   -0.0350   -0.4960 C.ar    1  UNL1        0.0270
     19  N          0.4570   -2.0850    0.0910 N.ar    1  UNL1       -0.2770
     20  C          2.1240   -0.8130   -0.2100 C.ar    1  UNL1        0.0930
     21  N          1.7970   -2.0620    0.1520 N.ar    1  UNL1       -0.1750
     22  H         -0.0190   -2.9480    0.3290 H       1  UNL1        0.1900
     23  C          3.4730   -0.3270   -0.2880 C.2     1  UNL1        0.0330
     24  C          4.5680   -1.0650   -0.0350 C.2     1  UNL1        0.0300
     25  C          5.9530   -0.5920   -0.1110 C.2     1  UNL1        0.0630
     26  C          6.3290    0.7160    0.1840 C.2     1  UNL1        0.0280
     27  N          6.8550   -1.5470   -0.4370 N.2     1  UNL1       -0.2570
     28  C          7.6780    1.0610    0.1220 C.2     1  UNL1        0.0040
     29  C          8.1560   -1.1850   -0.4920 C.2     1  UNL1        0.1110
     30  C          8.6120    0.0940   -0.2260 C.2     1  UNL1        0.0200
@<TRIPOS>BOND
     1    11     9    1
     2    12     9    1
     3     1    13    1
     4     1     2    1
     5    14    16    1
     6    14    13    2
     7    16    18    2
     8    13    15    1
     9     9     8   am
    10    18    17   ar
    11    18    20   ar
    12    29    27    1
    13    29    30    2
    14    15    17    2
    15    27    25    2
    16    17    19   ar
    17    23    20    1
    18    23    24    2
    19    30    28    1
    20    20    21   ar
    21    25    24    1
    22    25    26    1
    23    19    21   ar
    24    19    22    1
    25    28    26    2
    26     8    10    2
    27     8     3    1
    28     2     3    2
    29     2     6    1
    30     3     4    1
    31     6     7    2
    32     4     5    2
    33     7     5    1
