@<TRIPOS>MOLECULE
/Users/favourigwezeke/Personal_System/Research/Dr. Charles Nnadi/CASPID/DATA/DOCKING/LIGANDS/azd3759.pdbqt
 33 36 0 0 0
SMALL
GASTEIGER

@<TRIPOS>ATOM
      1  C          0.1020   -2.3560    1.0430 C.2     1  UNL1        0.1630
      2  C         -1.0580   -3.1300    1.1070 C.2     1  UNL1        0.0790
      3  C         -2.3200   -2.5910    0.8610 C.2     1  UNL1        0.0800
      4  N         -3.3780   -3.4000    0.9500 N.2     1  UNL1       -0.2360
      5  C         -4.5760   -2.8530    0.7180 C.2     1  UNL1        0.2240
      6  N         -4.8150   -1.5780    0.3990 N.2     1  UNL1       -0.2190
      7  C         -3.7450   -0.7690    0.2940 C.2     1  UNL1        0.1410
      8  C         -2.4360   -1.2300    0.5370 C.2     1  UNL1        0.0470
      9  C         -1.2720   -0.4300    0.4870 C.2     1  UNL1        0.0650
     10  C         -0.0260   -1.0050    0.7220 C.2     1  UNL1        0.1750
     11  O          1.3720   -2.8030    1.2870 O.2     1  UNL1       -0.4930
     12  C          1.5470   -4.2050    1.4440 C.3     1  UNL1        0.2780
     13  O          1.1050   -0.1860    0.6850 O.3     1  UNL1       -0.4060
     14  C          1.6980   -0.1380   -0.5730 C.2     1  UNL1        0.4150
     15  O          1.2210   -0.6490   -1.5830 O.2     1  UNL1       -0.2240
     16  N          2.8830    0.5810   -0.5690 N.am    1  UNL1       -0.3030
     17  C          3.6980    0.6330   -1.7750 C.3     1  UNL1        0.1390
     18  C          3.5110    1.0990    0.6590 C.3     1  UNL1        0.0990
     19  C          5.0840   -0.0090   -1.5520 C.3     1  UNL1        0.1060
     20  C          5.0330    1.3650    0.4680 C.3     1  UNL1        0.1090
     21  N          5.6890    0.2470   -0.2260 N.3     1  UNL1       -0.3030
     22  C          2.8220    2.3810    1.1330 C.3     1  UNL1        0.0320
     23  C          7.1320    0.4290   -0.3170 C.3     1  UNL1        0.1050
     24  N         -3.9370    0.5880   -0.0760 N.pl3   1  UNL1       -0.3370
     25  H         -3.3320    0.8120   -0.8660 H       1  UNL1        0.1680
     26  C         -5.1520    1.3090   -0.1710 C.2     1  UNL1        0.0770
     27  C         -6.2450    1.0710    0.6720 C.2     1  UNL1        0.0290
     28  C         -5.2380    2.3870   -1.0670 C.2     1  UNL1        0.1650
     29  C         -7.4040    1.8500    0.5850 C.2     1  UNL1        0.0040
     30  C         -6.3900    3.1680   -1.1580 C.2     1  UNL1        0.0780
     31  C         -7.4800    2.8970   -0.3340 C.2     1  UNL1        0.0240
     32  F         -4.1790    2.6510   -1.8540 F       1  UNL1       -0.2030
     33  Cl        -6.4800    4.4730   -2.2780 Cl      1  UNL1       -0.0810
@<TRIPOS>BOND
     1    33    30    1
     2    32    28    1
     3    17    19    1
     4    17    16    1
     5    15    14    2
     6    19    21    1
     7    30    28    1
     8    30    31    2
     9    28    26    2
    10    25    24    1
    11    14    16   am
    12    14    13    1
    13    16    18    1
    14    31    29    1
    15    23    21    1
    16    21    20    1
    17    26    24    1
    18    26    27    1
    19    24     7    1
    20     7     6    2
    21     7     8    1
    22     6     5    1
    23    20    18    1
    24     9     8    2
    25     9    10    1
    26     8     3    1
    27    29    27    2
    28    18    22    1
    29    13    10    1
    30     5     4    2
    31    10     1    2
    32     3     4    1
    33     3     2    2
    34     1     2    1
    35     1    11    1
    36    11    12    1
