@<TRIPOS>MOLECULE
/Users/favourigwezeke/Personal_System/Research/Dr. Charles Nnadi/CASPID/DATA/DOCKING/LIGANDS/cediranib.pdbqt
 34 38 0 0 0
SMALL
GASTEIGER

@<TRIPOS>ATOM
      1  O         -2.9260    1.6200    0.5780 O.2     1  UNL1       -0.4900
      2  C         -1.6840    1.0470    0.6870 C.2     1  UNL1        0.1630
      3  C         -1.1020    0.6030   -0.5110 C.2     1  UNL1        0.1610
      4  C          0.1640    0.0190   -0.4720 C.2     1  UNL1        0.0660
      5  C          0.8550   -0.1170    0.7570 C.2     1  UNL1        0.0670
      6  C         -0.9800    0.9200    1.8890 C.2     1  UNL1        0.0790
      7  C          2.1210   -0.6880    0.9080 C.2     1  UNL1        0.2300
      8  C          0.2800    0.3400    1.9450 C.2     1  UNL1        0.0810
      9  N          2.7580   -0.8290    2.0880 N.2     1  UNL1       -0.2010
     10  N          0.8960    0.2360    3.1300 N.2     1  UNL1       -0.2360
     11  C          2.1070   -0.3400    3.1440 C.2     1  UNL1        0.2260
     12  O         -1.8510    0.7670   -1.6480 O.2     1  UNL1       -0.4930
     13  C         -1.2670    0.3840   -2.8850 C.3     1  UNL1        0.2780
     14  O          2.7260   -1.2110   -0.2330 O.2     1  UNL1       -0.4350
     15  C          4.1010   -1.2040   -0.2390 C.2     1  UNL1        0.1650
     16  C          4.7600   -2.4300   -0.3120 C.2     1  UNL1        0.0520
     17  C          4.8200   -0.0020   -0.2530 C.2     1  UNL1        0.1750
     18  C          6.1580   -2.4890   -0.3630 C.2     1  UNL1        0.0310
     19  C          6.2250   -0.0350   -0.3040 C.2     1  UNL1        0.0390
     20  C          6.8620   -1.2760   -0.3560 C.2     1  UNL1        0.0490
     21  C          7.2430    0.9580   -0.3240 C.2     1  UNL1        0.0340
     22  N          8.2160   -1.0340   -0.3980 N.pl3   1  UNL1       -0.3590
     23  C          8.4640    0.3180   -0.3820 C.2     1  UNL1        0.0130
     24  F          4.1720    1.1730   -0.2390 F       1  UNL1       -0.2020
     25  H          8.9250   -1.7530   -0.4340 H       1  UNL1        0.1660
     26  C          9.8440    0.8600   -0.4230 C.3     1  UNL1        0.0640
     27  C         -3.7980    1.6040    1.7070 C.3     1  UNL1        0.2310
     28  C         -4.3480    0.2160    2.0220 C.3     1  UNL1        0.0570
     29  C         -4.8830   -0.5930    0.8320 C.3     1  UNL1        0.0880
     30  N         -6.1190   -0.0600    0.2450 N.3     1  UNL1       -0.3030
     31  C         -5.8760    0.9410   -0.8040 C.3     1  UNL1        0.0840
     32  C         -6.8720   -1.1150   -0.4450 C.3     1  UNL1        0.0840
     33  C         -7.1850    0.9800   -1.5840 C.3     1  UNL1        0.0170
     34  C         -7.8830   -0.3340   -1.2650 C.3     1  UNL1        0.0170
@<TRIPOS>BOND
     1    13    12    1
     2    12     3    1
     3    33    34    1
     4    33    31    1
     5    34    32    1
     6    31    30    1
     7     3     4    1
     8     3     2    2
     9     4     5    2
    10    32    30    1
    11    25    22    1
    12    26    23    1
    13    22    23    1
    14    22    20    1
    15    23    21    2
    16    18    20    2
    17    18    16    1
    18    20    19    1
    19    21    19    1
    20    16    15    2
    21    19    17    2
    22    17    15    1
    23    17    24    1
    24    15    14    1
    25    14     7    1
    26    30    29    1
    27     1     2    1
    28     1    27    1
    29     2     6    1
    30     5     7    1
    31     5     8    1
    32    29    28    1
    33     7     9    2
    34    27    28    1
    35     6     8    2
    36     8    10    1
    37     9    11    1
    38    10    11    2
