@<TRIPOS>MOLECULE
/Users/favourigwezeke/Personal_System/Research/Dr. Charles Nnadi/CASPID/DATA/DOCKING/LIGANDS/dabrafenib.pdbqt
 38 41 0 0 0
SMALL
GASTEIGER

@<TRIPOS>ATOM
      1  C          0.1150    0.9680   -0.9680 C.2     1  UNL1        0.0400
      2  C          0.6220    1.2290   -2.2480 C.2     1  UNL1        0.0130
      3  C          1.7090    2.0930   -2.4150 C.2     1  UNL1        0.0030
      4  C          2.3100    2.6890   -1.3040 C.2     1  UNL1        0.0300
      5  C          1.8370    2.4100   -0.0250 C.2     1  UNL1        0.0850
      6  C          0.7370    1.5590    0.1350 C.2     1  UNL1        0.1560
      7  F          0.3100    1.2930    1.3800 F       1  UNL1       -0.2040
      8  C         -1.0080    0.0570   -0.8190 C.ar    1  UNL1        0.0940
      9  C         -2.0330   -1.8880   -1.1570 C.ar    1  UNL1        0.0990
     10  N         -0.9550   -1.1830   -1.4330 N.ar    1  UNL1       -0.2400
     11  S         -3.1930   -1.0640   -0.1830 S.2     1  UNL1       -0.1160
     12  C         -2.1780    0.3250   -0.1240 C.ar    1  UNL1        0.0810
     13  C         -2.2770   -3.3080   -1.6690 C.3     1  UNL1        0.0140
     14  C         -3.3870   -3.3000   -2.7350 C.3     1  UNL1        0.0180
     15  C         -0.9880   -3.8560   -2.3230 C.3     1  UNL1        0.0180
     16  C         -2.6620   -4.2610   -0.5210 C.3     1  UNL1        0.0180
     17  C         -2.6490    1.5240    0.5690 C.2     1  UNL1        0.0880
     18  C         -2.5920    2.7710   -0.0160 C.2     1  UNL1        0.0500
     19  N         -3.1290    1.3180    1.8120 N.2     1  UNL1       -0.2120
     20  C         -3.0460    3.8070    0.7620 C.2     1  UNL1        0.1170
     21  C         -3.5610    2.3920    2.4740 C.cat   1  UNL1        0.2200
     22  N         -3.5220    3.6440    2.0080 N.2     1  UNL1       -0.2220
     23  N         -4.0390    2.2000    3.7540 N.pl3   1  UNL1       -0.3680
     24  H         -3.6570    1.3430    4.1340 H       1  UNL1        0.1590
     25  H         -3.9110    3.0440    4.2990 H       1  UNL1        0.1590
     26  N          2.4680    2.9550    1.1390 N.pl3   1  UNL1       -0.2760
     27  H          1.9230    2.9030    2.0030 H       1  UNL1        0.1800
     28  S          4.0860    2.5400    1.4460 S.O2    1  UNL1        0.2670
     29  O          4.3630    2.9320    2.8110 O.2     1  UNL1       -0.2010
     30  O          4.8900    3.0580    0.3600 O.2     1  UNL1       -0.2010
     31  C          4.0850    0.7890    1.3960 C.2     1  UNL1        0.1580
     32  C          4.8430    0.0850    0.4730 C.2     1  UNL1        0.1460
     33  C          3.3040    0.0970    2.3140 C.2     1  UNL1        0.1460
     34  C          4.8140   -1.3110    0.4600 C.2     1  UNL1        0.0410
     35  C          3.2650   -1.2970    2.3100 C.2     1  UNL1        0.0410
     36  C          4.0240   -2.0050    1.3790 C.2     1  UNL1        0.0060
     37  F          5.6110    0.7010   -0.4330 F       1  UNL1       -0.2050
     38  F          2.5410    0.7550    3.2000 F       1  UNL1       -0.2050
@<TRIPOS>BOND
     1    14    13    1
     2     3     2    1
     3     3     4    2
     4    15    13    1
     5     2     1    2
     6    13     9    1
     7    13    16    1
     8    10     9   ar
     9    10     8   ar
    10     4     5    1
    11     9    11   ar
    12     1     8    1
    13     1     6    1
    14     8    12   ar
    15    37    32    1
    16    11    12   ar
    17    12    17    1
    18     5     6    2
    19     5    26    1
    20    18    17    2
    21    18    20    1
    22     6     7    1
    23    30    28    2
    24    34    32    1
    25    34    36    2
    26    32    31    2
    27    17    19    1
    28    20    22    2
    29    26    28    1
    30    26    27    1
    31    36    35    1
    32    31    28    1
    33    31    33    1
    34    28    29    2
    35    19    21    2
    36    22    21    1
    37    35    33    2
    38    33    38    1
    39    21    23    1
    40    23    24    1
    41    23    25    1
