@<TRIPOS>MOLECULE
/Users/favourigwezeke/Personal_System/Research/Dr. Charles Nnadi/CASPID/DATA/DOCKING/LIGANDS/erlotinib.pdbqt
 30 32 0 0 0
SMALL
GASTEIGER

@<TRIPOS>ATOM
      1  C          2.2220   -0.6670   -0.2030 C.2     1  UNL1        0.1410
      2  N          2.8490   -1.7630   -0.6520 N.2     1  UNL1       -0.2190
      3  C          2.2590   -2.8470   -1.1740 C.2     1  UNL1        0.2240
      4  N          0.9190   -2.8640   -1.2660 N.2     1  UNL1       -0.2360
      5  C          0.2150   -1.8060   -0.8380 C.2     1  UNL1        0.0800
      6  C         -1.1700   -1.8620   -0.9490 C.2     1  UNL1        0.0790
      7  C         -1.9980   -0.8450   -0.5460 C.2     1  UNL1        0.1630
      8  C         -1.3400    0.2770   -0.0040 C.2     1  UNL1        0.1620
      9  C          0.0300    0.3360    0.1070 C.2     1  UNL1        0.0640
     10  C          0.8380   -0.6760   -0.2940 C.2     1  UNL1        0.0470
     11  N          2.8830    0.4620    0.3440 N.pl3   1  UNL1       -0.3400
     12  H          2.3370    1.2710    0.7270 H       1  UNL1        0.1680
     13  C          4.2990    0.6060    0.4230 C.2     1  UNL1        0.0410
     14  C          7.4740   -0.6820   -1.0450 C.1     1  UNL1       -0.0700
     15  C          6.5530    0.0870   -0.2250 C.2     1  UNL1        0.0260
     16  C          7.0700    0.9990    0.6500 C.2     1  UNL1        0.0170
     17  C          5.1790   -0.1190   -0.3490 C.2     1  UNL1        0.0430
     18  C          6.2010    1.7420    1.4380 C.2     1  UNL1        0.0030
     19  C          4.8510    1.5190    1.2970 C.2     1  UNL1        0.0260
     20  C          8.2340   -1.3230   -1.7290 C.1     1  UNL1        0.0100
     21  O         -2.1100    1.3490    0.4250 O.2     1  UNL1       -0.4870
     22  C         -1.4740    2.4830    0.9690 C.3     1  UNL1        0.2580
     23  C         -2.5350    3.5190    1.3710 C.3     1  UNL1        0.2010
     24  O         -3.2400    3.8560    0.2150 O.3     1  UNL1       -0.3810
     25  C         -4.2100    4.7840    0.5260 C.3     1  UNL1        0.1950
     26  O         -3.3410   -0.7930   -0.6010 O.2     1  UNL1       -0.4870
     27  C         -4.1870   -1.8030   -1.0500 C.3     1  UNL1        0.2580
     28  C         -4.1910   -3.0630   -0.2350 C.3     1  UNL1        0.2010
     29  O         -5.0430   -4.0210   -0.7600 O.3     1  UNL1       -0.3810
     30  C         -6.3410   -3.5620   -0.7960 C.3     1  UNL1        0.1950
@<TRIPOS>BOND
     1    20    14    3
     2     4     3    2
     3     4     5    1
     4     3     2    1
     5    27    26    1
     6    27    28    1
     7    14    15    1
     8     6     5    2
     9     6     7    1
    10     5    10    1
    11    30    29    1
    12    29    28    1
    13     2     1    2
    14    26     7    1
    15     7     8    2
    16    17    15    1
    17    17    13    2
    18    10     1    1
    19    10     9    2
    20    15    16    2
    21     1    11    1
    22     8     9    1
    23     8    21    1
    24    24    25    1
    25    24    23    1
    26    11    13    1
    27    11    12    1
    28    13    19    1
    29    21    22    1
    30    16    18    1
    31    22    23    1
    32    19    18    2
