@<TRIPOS>MOLECULE
/Users/favourigwezeke/Personal_System/Research/Dr. Charles Nnadi/CASPID/DATA/DOCKING/LIGANDS/foretinib.pdbqt
 48 53 0 0 0
SMALL
GASTEIGER

@<TRIPOS>ATOM
      1  O          0.4320   -3.6770   -1.3120 O.2     1  UNL1       -0.4540
      2  C         -0.7870   -3.7930   -0.6800 C.2     1  UNL1        0.1380
      3  C         -3.0770   -1.6260   -2.7250 C.2     1  UNL1        0.1610
      4  C         -1.9140   -2.2660   -2.2940 C.2     1  UNL1        0.0640
      5  C         -4.2740   -1.8310   -2.0190 C.2     1  UNL1        0.1630
      6  C         -1.9240   -3.1120   -1.1620 C.2     1  UNL1        0.0470
      7  C         -4.2750   -2.6710   -0.9010 C.2     1  UNL1        0.0790
      8  C         -3.1270   -3.3210   -0.4650 C.2     1  UNL1        0.0780
      9  C         -0.8820   -4.6810    0.3850 C.2     1  UNL1        0.0680
     10  N         -3.2140   -4.1390    0.6000 N.2     1  UNL1       -0.2560
     11  C         -2.1090   -4.8080    0.9940 C.2     1  UNL1        0.1150
     12  O         -3.1480   -0.7930   -3.8130 O.2     1  UNL1       -0.4930
     13  C         -1.9690   -0.6080   -4.5830 C.3     1  UNL1        0.2780
     14  O         -5.3720   -1.1750   -2.5100 O.2     1  UNL1       -0.4900
     15  C         -6.6420   -1.3400   -1.8870 C.3     1  UNL1        0.2310
     16  C         -6.8410   -0.3650   -0.7240 C.3     1  UNL1        0.0570
     17  C         -6.6470    1.0930   -1.1690 C.3     1  UNL1        0.0880
     18  N         -6.8990    2.1320   -0.1640 N.3     1  UNL1       -0.2990
     19  C         -8.3080    2.2230    0.2580 C.3     1  UNL1        0.1130
     20  C         -6.0350    2.0290    1.0250 C.3     1  UNL1        0.1130
     21  C         -8.5070    3.3970    1.2300 C.3     1  UNL1        0.1750
     22  C         -6.2860    3.2060    1.9810 C.3     1  UNL1        0.1750
     23  O         -7.6620    3.2660    2.3830 O.3     1  UNL1       -0.3790
     24  C          1.2270   -2.6120   -0.9480 C.2     1  UNL1        0.1630
     25  C          1.3730   -2.1500    0.3590 C.2     1  UNL1        0.0520
     26  C          1.9760   -2.0150   -1.9610 C.2     1  UNL1        0.1670
     27  C          2.2560   -1.0970    0.6370 C.2     1  UNL1        0.0300
     28  C          2.8490   -0.9640   -1.6910 C.2     1  UNL1        0.0690
     29  C          3.0020   -0.5000   -0.3820 C.2     1  UNL1        0.0440
     30  F          1.8530   -2.4370   -3.2280 F       1  UNL1       -0.2030
     31  N          3.9130    0.5530   -0.1760 N.am    1  UNL1       -0.3250
     32  C          4.2980    1.1050    1.0280 C.2     1  UNL1        0.2400
     33  O          3.9530    0.7780    2.1540 O.2     1  UNL1       -0.2730
     34  H          4.3800    0.9190   -1.0000 H       1  UNL1        0.1690
     35  C          5.3000    2.2080    0.8750 C.3     1  UNL1        0.1280
     36  C          5.0950    3.4890    1.6850 C.3     1  UNL1        0.0280
     37  C          4.8270    3.5040    0.2140 C.3     1  UNL1        0.0280
     38  C          6.7100    1.7630    0.6310 C.2     1  UNL1        0.2400
     39  O          7.1540    1.8140   -0.5080 O.2     1  UNL1       -0.2740
     40  N          7.3440    1.3220    1.7740 N.am    1  UNL1       -0.3250
     41  H          6.7860    1.3260    2.6220 H       1  UNL1        0.1690
     42  C          8.6520    0.8150    1.8900 C.2     1  UNL1        0.0410
     43  C          9.5360    0.6860    0.8140 C.2     1  UNL1        0.0290
     44  C          9.0750    0.4240    3.1670 C.2     1  UNL1        0.0290
     45  C         10.8180    0.1640    1.0110 C.2     1  UNL1        0.0410
     46  C         10.3570   -0.0950    3.3640 C.2     1  UNL1        0.0410
     47  C         11.2170   -0.2230    2.2820 C.2     1  UNL1        0.1230
     48  F         12.4420   -0.7310    2.4680 F       1  UNL1       -0.2070
@<TRIPOS>BOND
     1    13    12    1
     2    12     3    1
     3    30    26    1
     4     3     4    2
     5     3     5    1
     6    14     5    1
     7    14    15    1
     8     4     6    1
     9     5     7    2
    10    26    28    1
    11    26    24    2
    12    15    16    1
    13    28    29    2
    14     1    24    1
    15     1     2    1
    16    17    16    1
    17    17    18    1
    18     6     2    2
    19     6     8    1
    20    34    31    1
    21    24    25    1
    22     7     8    1
    23     2     9    1
    24    39    38    2
    25     8    10    2
    26    29    31    1
    27    29    27    1
    28    31    32   am
    29    18    19    1
    30    18    20    1
    31    37    35    1
    32    37    36    1
    33    19    21    1
    34    25    27    2
    35     9    11    2
    36    10    11    1
    37    38    35    1
    38    38    40   am
    39    43    45    1
    40    43    42    2
    41    35    32    1
    42    35    36    1
    43    45    47    2
    44    20    22    1
    45    32    33    2
    46    21    23    1
    47    40    42    1
    48    40    41    1
    49    42    44    1
    50    22    23    1
    51    47    48    1
    52    47    46    1
    53    44    46    2
