@<TRIPOS>MOLECULE
/Users/favourigwezeke/Personal_System/Research/Dr. Charles Nnadi/CASPID/DATA/DOCKING/LIGANDS/gefitinib.pdbqt
 32 35 0 0 0
SMALL
GASTEIGER

@<TRIPOS>ATOM
      1  O         -0.9380   -0.5180    0.9920 O.2     1  UNL1       -0.4900
      2  C          0.1240   -1.0900    0.3400 C.2     1  UNL1        0.1620
      3  C         -0.1230   -2.2510   -0.4000 C.2     1  UNL1        0.1620
      4  C          0.9410   -2.8730   -1.0600 C.2     1  UNL1        0.0790
      5  C          2.2410   -2.3850   -0.9870 C.2     1  UNL1        0.0800
      6  C          1.4250   -0.5970    0.4420 C.2     1  UNL1        0.0640
      7  N          3.1980   -3.0340   -1.6550 N.2     1  UNL1       -0.2360
      8  C          2.4980   -1.2430   -0.2200 C.2     1  UNL1        0.0470
      9  C          4.4370   -2.5380   -1.5690 C.2     1  UNL1        0.2240
     10  C          3.8440   -0.8250   -0.1830 C.2     1  UNL1        0.1410
     11  N          4.8080   -1.4660   -0.8670 N.2     1  UNL1       -0.2190
     12  O         -1.4260   -2.6780   -0.4370 O.2     1  UNL1       -0.4930
     13  C         -1.6970   -3.8990   -1.1130 C.3     1  UNL1        0.2780
     14  N          4.1920    0.3010    0.6160 N.pl3   1  UNL1       -0.3400
     15  H          3.8730    0.1350    1.5660 H       1  UNL1        0.1680
     16  C          5.3940    1.0450    0.5890 C.2     1  UNL1        0.0410
     17  C          5.7990    1.7280    1.7490 C.2     1  UNL1        0.0290
     18  C          6.1370    1.2310   -0.5870 C.2     1  UNL1        0.0490
     19  C          6.9460    2.5260    1.7500 C.2     1  UNL1        0.0430
     20  C          7.2830    2.0300   -0.5880 C.2     1  UNL1        0.0780
     21  C          7.6840    2.6690    0.5810 C.2     1  UNL1        0.1410
     22  Cl         8.1770    2.2270   -2.0480 Cl      1  UNL1       -0.0810
     23  F          8.7780    3.4450    0.6010 F       1  UNL1       -0.2050
     24  C         -0.9660    0.9130    0.9610 C.3     1  UNL1        0.2310
     25  C         -2.4070    1.3750    1.1740 C.3     1  UNL1        0.0570
     26  C         -3.3210    0.8980    0.0350 C.3     1  UNL1        0.0880
     27  N         -4.6820    1.4410    0.1620 N.3     1  UNL1       -0.2990
     28  C         -5.3920    1.3520   -1.1340 C.3     1  UNL1        0.1130
     29  C         -5.4730    0.7820    1.2270 C.3     1  UNL1        0.1130
     30  C         -6.9150    1.4160   -0.9570 C.3     1  UNL1        0.1750
     31  C         -6.4820   -0.2530    0.7010 C.3     1  UNL1        0.1750
     32  O         -7.4330    0.3000   -0.2200 O.3     1  UNL1       -0.3790
@<TRIPOS>BOND
     1    22    20    1
     2     7     9    2
     3     7     5    1
     4     9    11    1
     5    28    30    1
     6    28    27    1
     7    13    12    1
     8     4     5    2
     9     4     3    1
    10     5     8    1
    11    30    32    1
    12    11    10    2
    13    20    18    1
    14    20    21    2
    15    18    16    2
    16    12     3    1
    17     3     2    2
    18     8    10    1
    19     8     6    2
    20    32    31    1
    21    10    14    1
    22    26    27    1
    23    26    25    1
    24    27    29    1
    25     2     6    1
    26     2     1    1
    27    21    23    1
    28    21    19    1
    29    16    14    1
    30    16    17    1
    31    14    15    1
    32    31    29    1
    33    24     1    1
    34    24    25    1
    35    17    19    2
