@<TRIPOS>MOLECULE
/Users/favourigwezeke/Personal_System/Research/Dr. Charles Nnadi/CASPID/DATA/DOCKING/LIGANDS/lapatinib.pdbqt
 42 46 0 0 0
SMALL
GASTEIGER

@<TRIPOS>ATOM
      1  C          2.3410   -0.9380    1.0960 C.2     1  UNL1        0.0180
      2  C          2.8740   -1.7660    2.0860 C.2     1  UNL1        0.0140
      3  C          2.0500   -2.3200    3.0750 C.2     1  UNL1        0.0300
      4  C          0.6860   -2.0690    3.1200 C.2     1  UNL1        0.0760
      5  N         -0.0390   -2.6390    4.0860 N.2     1  UNL1       -0.2360
      6  C         -1.3500   -2.3810    4.0830 C.2     1  UNL1        0.2240
      7  N         -2.0000   -1.6000    3.2160 N.2     1  UNL1       -0.2190
      8  C         -1.2610   -1.0150    2.2570 C.2     1  UNL1        0.1410
      9  C          0.1290   -1.2290    2.1470 C.2     1  UNL1        0.0440
     10  C          0.9660   -0.6780    1.1370 C.2     1  UNL1        0.0260
     11  C          3.1800   -0.3660    0.0440 C.2     1  UNL1        0.1340
     12  C          5.1260   -0.0270   -0.9370 C.2     1  UNL1        0.1180
     13  C          4.1890    0.6350   -1.7020 C.2     1  UNL1        0.0470
     14  O          4.5200   -0.6330    0.1270 O.2     1  UNL1       -0.4600
     15  C          2.9400    0.4170   -1.0720 C.2     1  UNL1        0.0510
     16  C          6.5990   -0.1950   -1.0500 C.3     1  UNL1        0.1570
     17  N          7.2820    0.8850   -0.3240 N.3     1  UNL1       -0.3090
     18  H          6.9520    0.8680    0.6470 H       1  UNL1        0.1230
     19  C          8.7390    0.7440   -0.3850 C.3     1  UNL1        0.0970
     20  C          9.3720    1.9340   -1.0960 C.3     1  UNL1        0.1520
     21  S         10.0890    1.5080   -2.6760 S.O2    1  UNL1        0.1480
     22  O          9.1550    0.6690   -3.4070 O.2     1  UNL1       -0.2290
     23  O         10.6010    2.7300   -3.2680 O.2     1  UNL1       -0.2290
     24  C         11.5020    0.5130   -2.2550 C.3     1  UNL1        0.1580
     25  N         -1.8880   -0.1280    1.3380 N.pl3   1  UNL1       -0.3400
     26  H         -1.4250    0.7730    1.4010 H       1  UNL1        0.1680
     27  C         -3.2640    0.0150    1.0540 C.2     1  UNL1        0.0410
     28  C         -4.1790   -1.0350    1.1880 C.2     1  UNL1        0.0300
     29  C         -3.7180    1.2080    0.4750 C.2     1  UNL1        0.0500
     30  C         -5.5230   -0.8890    0.8140 C.2     1  UNL1        0.0500
     31  C         -5.0580    1.3600    0.0970 C.2     1  UNL1        0.0850
     32  C         -5.9760    0.3110    0.2630 C.2     1  UNL1        0.1380
     33  Cl        -5.5350    2.8780   -0.5900 Cl      1  UNL1       -0.0800
     34  O         -7.2630    0.5490   -0.1380 O.2     1  UNL1       -0.4870
     35  C         -8.1800   -0.5420   -0.1200 C.3     1  UNL1        0.2650
     36  C         -9.5130   -0.0850   -0.6680 C.2     1  UNL1       -0.0080
     37  C        -10.0710    1.1430   -0.2740 C.2     1  UNL1        0.0070
     38  C        -10.2400   -0.9050   -1.5420 C.2     1  UNL1        0.0460
     39  C        -11.3180    1.5520   -0.7570 C.2     1  UNL1        0.0030
     40  C        -11.4800   -0.4880   -2.0160 C.2     1  UNL1        0.1230
     41  C        -12.0240    0.7320   -1.6330 C.2     1  UNL1        0.0390
     42  F        -12.1650   -1.2830   -2.8500 F       1  UNL1       -0.2070
@<TRIPOS>BOND
     1    22    21    2
     2    23    21    2
     3    42    40    1
     4    21    24    1
     5    21    20    1
     6    40    41    2
     7    40    38    1
     8    13    15    1
     9    13    12    2
    10    41    39    1
    11    38    36    2
    12    20    19    1
    13    15    11    2
    14    16    12    1
    15    16    17    1
    16    12    14    1
    17    39    37    2
    18    36    37    1
    19    36    35    1
    20    33    31    1
    21    19    17    1
    22    17    18    1
    23    34    35    1
    24    34    32    1
    25    11    14    1
    26    11     1    1
    27    31    32    2
    28    31    29    1
    29    32    30    1
    30    29    27    2
    31    30    28    2
    32    27    28    1
    33    27    25    1
    34     1    10    2
    35     1     2    1
    36    10     9    1
    37    25    26    1
    38    25     8    1
    39     2     3    2
    40     9     8    1
    41     9     4    2
    42     8     7    2
    43     3     4    1
    44     4     5    1
    45     7     6    1
    46     6     5    2
