@<TRIPOS>MOLECULE
/Users/favourigwezeke/Personal_System/Research/Dr. Charles Nnadi/CASPID/DATA/DOCKING/LIGANDS/motesanib.pdbqt
 31 34 0 0 0
SMALL
GASTEIGER

@<TRIPOS>ATOM
      1  C          1.6330   -2.0540   -0.7380 C.2     1  UNL1        0.0820
      2  C          1.4200   -3.4160   -0.4840 C.2     1  UNL1        0.0190
      3  C          2.5150   -4.2610   -0.3740 C.2     1  UNL1        0.0210
      4  C          3.7730   -3.7120   -0.5300 C.2     1  UNL1        0.1130
      5  N          4.0010   -2.4040   -0.7870 N.2     1  UNL1       -0.2390
      6  C          2.9400   -1.5700   -0.9010 C.2     1  UNL1        0.1390
      7  C          0.4720   -1.1470   -0.8990 C.2     1  UNL1        0.2590
      8  N         -0.4680   -1.2370    0.1110 N.am    1  UNL1       -0.3220
      9  O          0.4450   -0.4210   -1.8870 O.2     1  UNL1       -0.2690
     10  H         -0.2410   -1.8360    0.8940 H       1  UNL1        0.1700
     11  C         -1.6840   -0.5270    0.2160 C.2     1  UNL1        0.0430
     12  C         -5.3500    1.6350    0.5680 C.3     1  UNL1        0.0090
     13  C         -5.3140    2.0820   -0.9230 C.3     1  UNL1        0.1240
     14  C         -4.1170    0.7750    0.6030 C.2     1  UNL1       -0.0170
     15  N         -3.9160    2.0100   -1.3810 N.pl3   1  UNL1       -0.3840
     16  C         -3.6850   -0.1190    1.5680 C.2     1  UNL1        0.0080
     17  C         -3.3600    1.0090   -0.5450 C.2     1  UNL1        0.0400
     18  C         -2.4670   -0.7740    1.3640 C.2     1  UNL1        0.0260
     19  C         -2.1360    0.3880   -0.7400 C.2     1  UNL1        0.0520
     20  C         -5.1990    2.8350    1.5110 C.3     1  UNL1        0.0180
     21  C         -6.6320    0.8630    0.8830 C.3     1  UNL1        0.0180
     22  H         -3.7900    1.7810   -2.3640 H       1  UNL1        0.1600
     23  N          3.1600   -0.1950   -1.0890 N.pl3   1  UNL1       -0.3650
     24  H          2.4840    0.1480   -1.7770 H       1  UNL1        0.1620
     25  C          4.5180    0.2270   -1.3880 C.3     1  UNL1        0.1500
     26  C          5.2820    0.5200   -0.1210 C.2     1  UNL1       -0.0260
     27  C          6.3660   -0.2720    0.2640 C.2     1  UNL1        0.0250
     28  C          4.9160    1.5870    0.7060 C.2     1  UNL1        0.0250
     29  C          7.0350    0.0380    1.4380 C.2     1  UNL1        0.1110
     30  C          5.6480    1.8170    1.8600 C.2     1  UNL1        0.1110
     31  N          6.7070    1.0710    2.2430 N.2     1  UNL1       -0.2650
@<TRIPOS>BOND
     1    22    15    1
     2     9     7    2
     3    24    23    1
     4    25    23    1
     5    25    26    1
     6    15    13    1
     7    15    17    1
     8    23     6    1
     9    13    12    1
    10     6     5    1
    11     6     1    2
    12     7     1    1
    13     7     8   am
    14     5     4    2
    15    19    17    1
    16    19    11    2
    17     1     2    1
    18    17    14    2
    19     4     3    1
    20     2     3    2
    21    26    27    2
    22    26    28    1
    23     8    11    1
    24     8    10    1
    25    11    18    1
    26    27    29    1
    27    12    14    1
    28    12    21    1
    29    12    20    1
    30    14    16    1
    31    28    30    2
    32    18    16    2
    33    29    31    2
    34    30    31    1
