@<TRIPOS>MOLECULE
/Users/favourigwezeke/Personal_System/Research/Dr. Charles Nnadi/CASPID/DATA/DOCKING/LIGANDS/osimertinib.pdbqt
 39 42 0 0 0
SMALL
GASTEIGER

@<TRIPOS>ATOM
      1  C         -2.2850   -0.7500   -1.2060 C.2     1  UNL1        0.0670
      2  C         -0.9030   -0.4820   -1.3050 C.2     1  UNL1        0.0580
      3  C          0.0410   -1.2530   -0.6270 C.2     1  UNL1        0.0860
      4  C         -0.4380   -2.2810    0.1980 C.2     1  UNL1        0.1440
      5  C         -1.7990   -2.5550    0.3290 C.2     1  UNL1        0.0760
      6  C         -2.7540   -1.7700   -0.3400 C.2     1  UNL1        0.0640
      7  N         -3.1280    0.0890   -1.9760 N.am    1  UNL1       -0.3210
      8  C         -4.3360   -0.2570   -2.5550 C.2     1  UNL1        0.2470
      9  O         -4.8370   -1.3680   -2.6770 O.2     1  UNL1       -0.2700
     10  H         -2.7010    0.9480   -2.3000 H       1  UNL1        0.1700
     11  C         -5.0010    0.9450   -3.1510 C.2     1  UNL1        0.0640
     12  C         -6.1540    0.8370   -3.8210 C.2     1  UNL1        0.0140
     13  N         -4.1300   -1.8850   -0.0290 N.pl3   1  UNL1       -0.3720
     14  C         -4.6210   -3.2610    0.1330 C.3     1  UNL1        0.1430
     15  C         -4.5260   -0.9260    1.0250 C.3     1  UNL1        0.1310
     16  C         -6.0250   -0.5640    0.9230 C.3     1  UNL1        0.1050
     17  N         -6.4850    0.3710    1.9790 N.3     1  UNL1       -0.3080
     18  C         -7.9550    0.4200    1.9900 C.3     1  UNL1        0.1050
     19  C         -5.9510    1.7220    1.7670 C.3     1  UNL1        0.1050
     20  N          1.4210   -1.0240   -0.7160 N.pl3   1  UNL1       -0.3210
     21  H          1.9930   -1.7470   -0.2990 H       1  UNL1        0.1700
     22  C          2.1440    0.1690   -0.7530 C.cat   1  UNL1        0.2270
     23  N          1.5350    1.3610   -0.8690 N.2     1  UNL1       -0.2210
     24  N          3.4680    0.0240   -0.5990 N.2     1  UNL1       -0.2130
     25  C          2.3230    2.4530   -0.8360 C.2     1  UNL1        0.1170
     26  C          4.2330    1.1400   -0.5750 C.2     1  UNL1        0.0780
     27  C          3.6890    2.3970   -0.6990 C.2     1  UNL1        0.0490
     28  C          5.6690    0.9070   -0.4110 C.2     1  UNL1        0.0260
     29  C          6.2190   -0.3450   -0.6260 C.2     1  UNL1        0.0960
     30  C          6.7590    1.7660   -0.0170 C.2     1  UNL1        0.0090
     31  N          7.5650   -0.2770   -0.4260 N.pl3   1  UNL1       -0.3500
     32  C          6.8820    3.1200    0.3850 C.2     1  UNL1        0.0110
     33  C          7.9330    0.9970   -0.0600 C.2     1  UNL1        0.0480
     34  C          8.1410    3.6600    0.6830 C.2     1  UNL1        0.0010
     35  C          9.2000    1.5270    0.2430 C.2     1  UNL1        0.0270
     36  C          9.2850    2.8740    0.6050 C.2     1  UNL1        0.0020
     37  C          8.4680   -1.4010   -0.5520 C.3     1  UNL1        0.1490
     38  O          0.4650   -3.0330    0.9090 O.2     1  UNL1       -0.4940
     39  C          0.5750   -2.5350    2.2490 C.3     1  UNL1        0.2780
@<TRIPOS>BOND
     1    12    11    2
     2    11     8    1
     3     9     8    2
     4     8     7   am
     5    10     7    1
     6     7     1    1
     7     2     1    2
     8     2     3    1
     9     1     6    1
    10    23    25    1
    11    23    22    2
    12    25    27    2
    13    22    20    1
    14    22    24    1
    15    20     3    1
    16    20    21    1
    17    27    26    1
    18     3     4    2
    19    29    31    1
    20    29    28    2
    21    24    26    2
    22    26    28    1
    23    37    31    1
    24    31    33    1
    25    28    30    1
    26     6    13    1
    27     6     5    2
    28    33    30    2
    29    33    35    1
    30    13    14    1
    31    13    15    1
    32    30    32    1
    33     4     5    1
    34     4    38    1
    35    35    36    2
    36    32    34    2
    37    36    34    1
    38    38    39    1
    39    16    15    1
    40    16    17    1
    41    19    17    1
    42    17    18    1
