@<TRIPOS>MOLECULE
/Users/favourigwezeke/Personal_System/Research/Dr. Charles Nnadi/CASPID/DATA/DOCKING/LIGANDS/plx-4720.pdbqt
 29 31 0 0 0
SMALL
GASTEIGER

@<TRIPOS>ATOM
      1  N         -2.1880   -0.7540    1.0180 N.pl3   1  UNL1       -0.2810
      2  H         -1.8690   -0.8630    1.9880 H       1  UNL1        0.1800
      3  S         -2.7260    0.8540    0.8600 S.O2    1  UNL1        0.2320
      4  O         -1.9400    1.5250   -0.1530 O.2     1  UNL1       -0.2070
      5  O         -2.8150    1.3700    2.2080 O.2     1  UNL1       -0.2070
      6  C         -4.3860    0.6200    0.2340 C.3     1  UNL1        0.1590
      7  C         -5.2620   -0.2170    1.1570 C.3     1  UNL1        0.0150
      8  C         -6.6710   -0.3540    0.6040 C.3     1  UNL1        0.0050
      9  C         -1.2110   -1.1620    0.0530 C.2     1  UNL1        0.0850
     10  C         -1.6300   -1.6710   -1.1780 C.2     1  UNL1        0.0330
     11  C          0.1470   -0.9230    0.2880 C.2     1  UNL1        0.1610
     12  C         -0.6830   -1.9640   -2.1630 C.2     1  UNL1        0.0420
     13  C          1.0830   -1.1920   -0.7020 C.2     1  UNL1        0.0960
     14  C          0.6690   -1.7210   -1.9200 C.2     1  UNL1        0.1370
     15  F          0.5270   -0.4250    1.4750 F       1  UNL1       -0.2040
     16  F          1.5530   -1.9800   -2.8920 F       1  UNL1       -0.2060
     17  C          2.5020   -0.9330   -0.4670 C.2     1  UNL1        0.2010
     18  O          3.2520   -1.9010   -0.3720 O.2     1  UNL1       -0.2880
     19  C          2.9600    0.4500   -0.3590 C.2     1  UNL1        0.0500
     20  C          2.1980    1.6000   -0.5250 C.2     1  UNL1        0.0970
     21  C          4.2950    0.8900   -0.0700 C.2     1  UNL1        0.0310
     22  N          3.0080    2.6920   -0.3340 N.pl3   1  UNL1       -0.3450
     23  C          5.5280    0.2600    0.1920 C.2     1  UNL1        0.0350
     24  C          4.2810    2.2810   -0.0630 C.2     1  UNL1        0.1380
     25  C          6.6310    1.0760    0.4350 C.2     1  UNL1        0.0600
     26  N          5.3120    3.1160    0.1640 N.2     1  UNL1       -0.2370
     27  C          6.4720    2.4570    0.4100 C.2     1  UNL1        0.1340
     28  H          2.7300    3.6620   -0.3820 H       1  UNL1        0.1670
     29  Cl         8.1680    0.3790    0.7610 Cl      1  UNL1       -0.0830
@<TRIPOS>BOND
     1    16    14    1
     2    12    14    2
     3    12    10    1
     4    14    13    1
     5    10     9    2
     6    13    17    1
     7    13    11    2
     8    20    19    2
     9    20    22    1
    10    17    18    2
    11    17    19    1
    12    28    22    1
    13    19    21    1
    14    22    24    1
    15     4     3    2
    16    21    24    2
    17    21    23    1
    18    24    26    1
    19     9    11    1
    20     9     1    1
    21    26    27    2
    22    23    25    2
    23     6     3    1
    24     6     7    1
    25    11    15    1
    26    27    25    1
    27    25    29    1
    28     8     7    1
    29     3     1    1
    30     3     5    2
    31     1     2    1
