@<TRIPOS>MOLECULE
/Users/favourigwezeke/Personal_System/Research/Dr. Charles Nnadi/CASPID/DATA/DOCKING/LIGANDS/sapitinib.pdbqt
 36 39 0 0 0
SMALL
GASTEIGER

@<TRIPOS>ATOM
      1  C          1.5230   -1.1630   -0.1640 C.2     1  UNL1        0.2480
      2  O          0.8860   -2.1730    0.1110 O.2     1  UNL1       -0.2700
      3  N          1.0990    0.1380   -0.0640 N.am    1  UNL1       -0.3190
      4  H          1.7860    0.8750   -0.1850 H       1  UNL1        0.1700
      5  C          2.9470   -1.3040   -0.5760 C.2     1  UNL1        0.0680
      6  C          3.5330   -0.5280   -1.5040 C.2     1  UNL1       -0.0060
      7  C          4.9390   -0.5760   -2.0430 C.3     1  UNL1        0.1110
      8  N          5.9170   -1.5350   -1.5520 N.3     1  UNL1       -0.3060
      9  C          5.6520   -2.9190   -1.9130 C.3     1  UNL1        0.1050
     10  C          6.3090   -1.3660   -0.1620 C.3     1  UNL1        0.1050
     11  C         -0.1900    0.6110    0.2620 C.2     1  UNL1        0.0850
     12  C         -1.2960   -0.2200    0.4290 C.2     1  UNL1        0.0440
     13  C         -0.3470    1.9990    0.4060 C.2     1  UNL1        0.1450
     14  C         -2.5680    0.3130    0.7600 C.2     1  UNL1        0.0450
     15  C         -1.6080    2.5200    0.7030 C.2     1  UNL1        0.0770
     16  C         -3.7370   -0.4470    0.9750 C.2     1  UNL1        0.1410
     17  C         -2.7150    1.7000    0.8860 C.2     1  UNL1        0.0800
     18  N         -4.9160    0.1350    1.2580 N.2     1  UNL1       -0.2190
     19  N         -3.8820    2.2800    1.1760 N.2     1  UNL1       -0.2360
     20  C         -4.9310    1.4670    1.3430 C.2     1  UNL1        0.2240
     21  O          0.7970    2.7390    0.2260 O.2     1  UNL1       -0.4860
     22  C          0.7560    4.1490    0.4860 C.3     1  UNL1        0.2010
     23  C          2.1830    4.6140    0.6830 C.3     1  UNL1        0.0760
     24  C          0.3530    4.9290   -0.7600 C.3     1  UNL1        0.2050
     25  C          2.6740    4.7580   -0.7410 C.3     1  UNL1        0.1640
     26  O          1.5500    5.1740   -1.5240 O.3     1  UNL1       -0.3770
     27  N         -3.6640   -1.8640    0.8830 N.pl3   1  UNL1       -0.3400
     28  H         -2.8690   -2.1960    1.4200 H       1  UNL1        0.1680
     29  C         -4.7130   -2.8100    0.8520 C.2     1  UNL1        0.0410
     30  C         -4.4390   -4.1340    1.2370 C.2     1  UNL1        0.0290
     31  C         -5.9880   -2.5180    0.3490 C.2     1  UNL1        0.0490
     32  C         -5.4250   -5.1220    1.1790 C.2     1  UNL1        0.0430
     33  C         -6.9760   -3.5050    0.2890 C.2     1  UNL1        0.0780
     34  C         -6.6910   -4.8000    0.7090 C.2     1  UNL1        0.1410
     35  Cl        -8.5380   -3.1060   -0.3170 Cl      1  UNL1       -0.0810
     36  F         -7.6240   -5.7620    0.6580 F       1  UNL1       -0.2050
@<TRIPOS>BOND
     1     7     8    1
     2     7     6    1
     3     9     8    1
     4     8    10    1
     5    26    24    1
     6    26    25    1
     7     6     5    2
     8    24    22    1
     9    25    23    1
    10     5     1    1
    11    35    33    1
    12     4     3    1
    13     1     3   am
    14     1     2    2
    15     3    11    1
    16    21    13    1
    17    21    22    1
    18    11    13    2
    19    11    12    1
    20    33    31    1
    21    33    34    2
    22    31    29    2
    23    13    15    1
    24    12    14    2
    25    22    23    1
    26    36    34    1
    27    15    17    2
    28    34    32    1
    29    14    17    1
    30    14    16    1
    31    29    27    1
    32    29    30    1
    33    27    16    1
    34    27    28    1
    35    17    19    1
    36    16    18    2
    37    19    20    2
    38    32    30    2
    39    18    20    1
