@<TRIPOS>MOLECULE
/Users/favourigwezeke/Personal_System/Research/Dr. Charles Nnadi/CASPID/DATA/DOCKING/LIGANDS/sb590885.pdbqt
 36 40 0 0 0
SMALL
GASTEIGER

@<TRIPOS>ATOM
      1  C          4.2030    0.0150   -0.4030 C.2     1  UNL1        0.1190
      2  C          3.6960    1.3000   -0.5790 C.2     1  UNL1        0.0470
      3  C          2.3110    1.5140   -0.5730 C.2     1  UNL1        0.0160
      4  C          1.4080    0.4550   -0.3920 C.2     1  UNL1        0.0170
      5  C          1.9300   -0.8320   -0.2140 C.2     1  UNL1        0.0160
      6  C          3.3140   -1.0450   -0.2210 C.2     1  UNL1        0.0470
      7  O          5.5230   -0.3370   -0.3890 O.2     1  UNL1       -0.4920
      8  C          6.4800    0.7150   -0.5520 C.3     1  UNL1        0.2450
      9  C          7.9030    0.1250   -0.5020 C.3     1  UNL1        0.1250
     10  N          8.4720   -0.0130    0.8580 N.3     1  UNL1       -0.3060
     11  C          7.6970   -0.9420    1.6840 C.3     1  UNL1        0.1050
     12  C          9.8620   -0.4680    0.7720 C.3     1  UNL1        0.1050
     13  C         -0.0320    0.7380   -0.3960 C.ar    1  UNL1        0.1380
     14  N         -0.5850    1.9310   -0.5070 N.ar    1  UNL1       -0.2280
     15  N         -1.0190   -0.2110   -0.2800 N.ar    1  UNL1       -0.3370
     16  C         -1.9500    1.7440   -0.4710 C.ar    1  UNL1        0.0970
     17  C         -2.2530    0.4010   -0.3100 C.ar    1  UNL1        0.0740
     18  H         -0.8690   -1.2000   -0.1520 H       1  UNL1        0.1680
     19  C         -2.8730    2.8620   -0.5730 C.2     1  UNL1        0.0050
     20  C         -4.1000    2.7580   -1.2300 C.2     1  UNL1        0.0300
     21  C         -2.5110    4.0930   -0.0230 C.2     1  UNL1        0.0300
     22  C         -4.9170    3.8760   -1.2820 C.2     1  UNL1        0.1110
     23  C         -3.3960    5.1530   -0.1290 C.2     1  UNL1        0.1110
     24  N         -4.5960    5.0700   -0.7410 N.2     1  UNL1       -0.2650
     25  C         -3.4910   -0.3460   -0.1290 C.2     1  UNL1        0.0010
     26  C         -4.3880    0.0120    0.8990 C.2     1  UNL1        0.0110
     27  C         -3.7900   -1.4300   -0.9740 C.2     1  UNL1        0.0140
     28  C         -5.5780   -0.6930    1.0910 C.2     1  UNL1        0.0110
     29  C         -4.9740   -2.1270   -0.7780 C.2     1  UNL1       -0.0380
     30  C         -5.8400   -1.7510    0.2410 C.2     1  UNL1        0.0030
     31  C         -5.4840   -3.2930   -1.5640 C.2     1  UNL1        0.0430
     32  C         -6.9880   -2.6410    0.2160 C.2     1  UNL1        0.0870
     33  C         -6.8250   -3.6450   -0.9010 C.2     1  UNL1        0.0650
     34  N         -7.9770   -2.5500    1.0460 N.2     1  UNL1       -0.0930
     35  O         -8.9320   -3.5370    0.7810 O.2     1  UNL1       -0.4110
     36  H         -9.6110   -3.3570    1.4580 H       1  UNL1        0.3300
@<TRIPOS>BOND
     1    31    33    2
     2    31    29    1
     3    22    20    1
     4    22    24    2
     5    20    19    2
     6    27    29    1
     7    27    25    2
     8    33    32    1
     9    29    30    2
    10    24    23    1
    11     2     3    1
    12     2     1    2
    13     3     4    2
    14    19    16    1
    15    19    21    1
    16     8     9    1
    17     8     7    1
    18    14    16   ar
    19    14    13   ar
    20     9    10    1
    21    16    17   ar
    22     1     7    1
    23     1     6    1
    24    13     4    1
    25    13    15   ar
    26     4     5    1
    27    17    15   ar
    28    17    25    1
    29    15    18    1
    30     6     5    2
    31    23    21    2
    32    25    26    1
    33    32    30    1
    34    32    34    2
    35    30    28    1
    36    12    10    1
    37    35    34    1
    38    35    36    1
    39    10    11    1
    40    26    28    2
