@<TRIPOS>MOLECULE
/Users/favourigwezeke/Personal_System/Research/Dr. Charles Nnadi/CASPID/DATA/DOCKING/LIGANDS/sorafenib.pdbqt
 35 37 0 0 0
SMALL
GASTEIGER

@<TRIPOS>ATOM
      1  C          1.9420   -1.3270    0.3370 C.2     1  UNL1        0.1270
      2  C          1.3600   -1.6070   -0.8970 C.2     1  UNL1        0.0490
      3  C         -0.0140   -1.4240   -1.0660 C.2     1  UNL1        0.0300
      4  C         -0.8150   -0.9740   -0.0050 C.2     1  UNL1        0.0430
      5  C         -0.2160   -0.7290    1.2350 C.2     1  UNL1        0.0300
      6  C          1.1590   -0.9120    1.4090 C.2     1  UNL1        0.0490
      7  O          3.2850   -1.5230    0.5310 O.2     1  UNL1       -0.4570
      8  C          4.1510   -0.5370    0.1080 C.2     1  UNL1        0.1310
      9  C          6.4230    0.0770   -0.2520 C.2     1  UNL1        0.1310
     10  C          5.4990   -0.8790    0.1420 C.2     1  UNL1        0.0810
     11  N          6.0900    1.3320   -0.6710 N.2     1  UNL1       -0.2510
     12  C          4.7750    1.6290   -0.6810 C.2     1  UNL1        0.1160
     13  C          3.7790    0.7430   -0.3020 C.2     1  UNL1        0.0670
     14  C          7.8870   -0.2400   -0.2080 C.2     1  UNL1        0.2690
     15  N          8.7000    0.7710   -0.6760 N.am    1  UNL1       -0.3540
     16  O          8.2980   -1.3080    0.2290 O.2     1  UNL1       -0.2680
     17  C         10.1330    0.7160   -0.5710 C.3     1  UNL1        0.1430
     18  H          8.2340    1.6450   -0.9040 H       1  UNL1        0.1630
     19  N         -2.1920   -0.8050   -0.2670 N.am    1  UNL1       -0.3080
     20  C         -3.1650   -0.3160    0.5960 C.2     1  UNL1        0.3230
     21  O         -2.9590    0.0590    1.7430 O.2     1  UNL1       -0.2480
     22  N         -4.4070   -0.3060   -0.0270 N.am    1  UNL1       -0.3080
     23  H         -2.4870   -1.0280   -1.2030 H       1  UNL1        0.1710
     24  H         -4.4420   -0.6740   -0.9650 H       1  UNL1        0.1710
     25  C         -5.6350    0.1400    0.5080 C.2     1  UNL1        0.0430
     26  C         -5.7900    0.6580    1.7920 C.2     1  UNL1        0.0280
     27  C         -6.7620    0.0530   -0.3200 C.2     1  UNL1        0.0400
     28  C         -7.0450    1.0810    2.2390 C.2     1  UNL1        0.0230
     29  C         -8.0360    0.4800    0.1150 C.2     1  UNL1        0.0760
     30  C         -8.1620    0.9960    1.4070 C.2     1  UNL1        0.0530
     31  Cl        -9.6670    1.5590    2.0310 Cl      1  UNL1       -0.0840
     32  C         -9.2130    0.4020   -0.8200 C.3     1  UNL1        0.4170
     33  F         -8.9050   -0.2010   -2.0070 F       1  UNL1       -0.1660
     34  F        -10.2610   -0.3090   -0.3210 F       1  UNL1       -0.1660
     35  F         -9.6980    1.6300   -1.1580 F       1  UNL1       -0.1660
@<TRIPOS>BOND
     1    33    32    1
     2    23    19    1
     3    35    32    1
     4     3     2    1
     5     3     4    2
     6    24    22    1
     7    18    15    1
     8     2     1    2
     9    32    34    1
    10    32    29    1
    11    12    11    2
    12    12    13    1
    13    15    17    1
    14    15    14   am
    15    11     9    1
    16    27    29    1
    17    27    25    2
    18    13     8    2
    19    19     4    1
    20    19    20   am
    21     9    14    1
    22     9    10    2
    23    14    16    2
    24    22    25    1
    25    22    20   am
    26     4     5    1
    27     8    10    1
    28     8     7    1
    29    29    30    2
    30     1     7    1
    31     1     6    1
    32    25    26    1
    33    20    21    2
    34     5     6    2
    35    30    31    1
    36    30    28    1
    37    26    28    2
