MODEL 1
REMARK VINA RESULT:    -8.444      0.000      0.000
REMARK INTER + INTRA:         -11.929
REMARK INTER:                 -10.912
REMARK INTRA:                  -1.017
REMARK UNBOUND:                -1.017
REMARK SMILES CNC(=O)c1ccccc1Sc1ccc2c(/C=C/c3ccccn3)n[nH]c2c1
REMARK SMILES IDX 11 1 10 2 5 3 6 4 7 5 9 6 8 7 3 8 2 9 4 10 1 11 12 13 13 14
REMARK SMILES IDX 28 15 14 16 27 17 15 18 26 19 16 20 25 21 17 23 18 24 19 25
REMARK SMILES IDX 20 26 24 27 21 28 23 29 22 30
REMARK H PARENT 2 12 26 22
ROOT
ATOM      1  S   UNL     1      23.559   5.088  50.592  1.00  0.00    -0.089 SA
ENDROOT
BRANCH   1   2
ATOM      2  C   UNL     1      22.927   3.718  49.624  1.00  0.00     0.025 A 
ATOM      3  C   UNL     1      22.682   2.434  50.143  1.00  0.00     0.053 A 
ATOM      4  C   UNL     1      22.127   1.438  49.324  1.00  0.00     0.015 A 
ATOM      5  C   UNL     1      21.842   1.701  47.985  1.00  0.00     0.001 A 
ATOM      6  C   UNL     1      22.639   3.964  48.272  1.00  0.00     0.016 A 
ATOM      7  C   UNL     1      22.104   2.963  47.458  1.00  0.00     0.001 A 
BRANCH   3   8
ATOM      8  C   UNL     1      22.948   2.047  51.550  1.00  0.00     0.252 C 
ATOM      9  N   UNL     1      24.128   1.379  51.786  1.00  0.00    -0.355 N 
ATOM     10  O   UNL     1      22.120   2.306  52.416  1.00  0.00    -0.269 OA
ATOM     11  C   UNL     1      24.546   1.047  53.123  1.00  0.00     0.143 C 
ATOM     12  H   UNL     1      24.817   1.336  51.043  1.00  0.00     0.163 HD
ENDBRANCH   3   8
ENDBRANCH   1   2
BRANCH   1  13
ATOM     13  C   UNL     1      25.171   5.294  49.845  1.00  0.00     0.014 A 
ATOM     14  C   UNL     1      26.021   4.187  49.743  1.00  0.00     0.016 A 
ATOM     15  C   UNL     1      25.587   6.552  49.387  1.00  0.00     0.043 A 
ATOM     16  C   UNL     1      27.295   4.304  49.167  1.00  0.00     0.014 A 
ATOM     17  C   UNL     1      26.858   6.640  48.808  1.00  0.00     0.067 A 
ATOM     18  C   UNL     1      27.719   5.558  48.684  1.00  0.00     0.027 A 
ATOM     19  N   UNL     1      27.530   7.699  48.264  1.00  0.00    -0.277 N 
ATOM     20  C   UNL     1      28.886   6.087  48.050  1.00  0.00     0.093 A 
ATOM     21  N   UNL     1      28.750   7.396  47.796  1.00  0.00    -0.175 NA
ATOM     22  H   UNL     1      27.207   8.656  48.176  1.00  0.00     0.190 HD
BRANCH  20  23
ATOM     23  C   UNL     1      30.054   5.321  47.714  1.00  0.00     0.033 C 
ATOM     24  C   UNL     1      31.263   5.482  48.281  1.00  0.00     0.030 C 
BRANCH  24  25
ATOM     25  C   UNL     1      32.467   4.712  47.958  1.00  0.00     0.063 A 
ATOM     26  C   UNL     1      32.442   3.533  47.216  1.00  0.00     0.028 A 
ATOM     27  N   UNL     1      33.622   5.269  48.390  1.00  0.00    -0.257 NA
ATOM     28  C   UNL     1      33.645   2.893  46.925  1.00  0.00     0.004 A 
ATOM     29  C   UNL     1      34.774   4.627  48.096  1.00  0.00     0.111 A 
ATOM     30  C   UNL     1      34.836   3.447  47.376  1.00  0.00     0.020 A 
ENDBRANCH  24  25
ENDBRANCH  20  23
ENDBRANCH   1  13
TORSDOF 5
ENDMDL
MODEL 2
REMARK VINA RESULT:    -8.317      1.415      2.519
REMARK INTER + INTRA:         -11.766
REMARK INTER:                 -10.906
REMARK INTRA:                  -0.860
REMARK UNBOUND:                -1.017
REMARK SMILES CNC(=O)c1ccccc1Sc1ccc2c(/C=C/c3ccccn3)n[nH]c2c1
REMARK SMILES IDX 11 1 10 2 5 3 6 4 7 5 9 6 8 7 3 8 2 9 4 10 1 11 12 13 13 14
REMARK SMILES IDX 28 15 14 16 27 17 15 18 26 19 16 20 25 21 17 23 18 24 19 25
REMARK SMILES IDX 20 26 24 27 21 28 23 29 22 30
REMARK H PARENT 2 12 26 22
ROOT
ATOM      1  S   UNL     1      23.293   5.364  50.188  1.00  0.00    -0.089 SA
ENDROOT
BRANCH   1   2
ATOM      2  C   UNL     1      23.351   3.771  51.007  1.00  0.00     0.025 A 
ATOM      3  C   UNL     1      22.857   2.579  50.448  1.00  0.00     0.053 A 
ATOM      4  C   UNL     1      23.002   1.365  51.138  1.00  0.00     0.015 A 
ATOM      5  C   UNL     1      23.607   1.332  52.394  1.00  0.00     0.001 A 
ATOM      6  C   UNL     1      23.953   3.721  52.275  1.00  0.00     0.016 A 
ATOM      7  C   UNL     1      24.077   2.513  52.964  1.00  0.00     0.001 A 
BRANCH   3   8
ATOM      8  C   UNL     1      22.198   2.500  49.122  1.00  0.00     0.252 C 
ATOM      9  N   UNL     1      20.828   2.634  49.114  1.00  0.00    -0.355 N 
ATOM     10  O   UNL     1      22.875   2.297  48.120  1.00  0.00    -0.269 OA
ATOM     11  C   UNL     1      20.088   2.682  47.879  1.00  0.00     0.143 C 
ATOM     12  H   UNL     1      20.366   2.942  49.962  1.00  0.00     0.163 HD
ENDBRANCH   3   8
ENDBRANCH   1   2
BRANCH   1  13
ATOM     13  C   UNL     1      24.979   5.487  49.602  1.00  0.00     0.014 A 
ATOM     14  C   UNL     1      25.741   4.321  49.470  1.00  0.00     0.016 A 
ATOM     15  C   UNL     1      25.536   6.737  49.300  1.00  0.00     0.043 A 
ATOM     16  C   UNL     1      27.068   4.372  49.016  1.00  0.00     0.014 A 
ATOM     17  C   UNL     1      26.858   6.760  48.841  1.00  0.00     0.067 A 
ATOM     18  C   UNL     1      27.636   5.619  48.690  1.00  0.00     0.027 A 
ATOM     19  N   UNL     1      27.661   7.797  48.455  1.00  0.00    -0.277 N 
ATOM     20  C   UNL     1      28.895   6.093  48.207  1.00  0.00     0.093 A 
ATOM     21  N   UNL     1      28.890   7.426  48.065  1.00  0.00    -0.175 NA
ATOM     22  H   UNL     1      27.427   8.783  48.430  1.00  0.00     0.190 HD
BRANCH  20  23
ATOM     23  C   UNL     1      30.023   5.257  47.902  1.00  0.00     0.033 C 
ATOM     24  C   UNL     1      31.305   5.587  48.137  1.00  0.00     0.030 C 
BRANCH  24  25
ATOM     25  C   UNL     1      32.470   4.750  47.837  1.00  0.00     0.063 A 
ATOM     26  C   UNL     1      32.386   3.549  47.138  1.00  0.00     0.028 A 
ATOM     27  N   UNL     1      33.652   5.268  48.245  1.00  0.00    -0.257 NA
ATOM     28  C   UNL     1      33.557   2.843  46.866  1.00  0.00     0.004 A 
ATOM     29  C   UNL     1      34.772   4.562  47.970  1.00  0.00     0.111 A 
ATOM     30  C   UNL     1      34.775   3.356  47.292  1.00  0.00     0.020 A 
ENDBRANCH  24  25
ENDBRANCH  20  23
ENDBRANCH   1  13
TORSDOF 5
ENDMDL
MODEL 3
REMARK VINA RESULT:    -8.316      5.460      7.429
REMARK INTER + INTRA:         -11.764
REMARK INTER:                 -10.768
REMARK INTRA:                  -0.997
REMARK UNBOUND:                -1.017
REMARK SMILES CNC(=O)c1ccccc1Sc1ccc2c(/C=C/c3ccccn3)n[nH]c2c1
REMARK SMILES IDX 11 1 10 2 5 3 6 4 7 5 9 6 8 7 3 8 2 9 4 10 1 11 12 13 13 14
REMARK SMILES IDX 28 15 14 16 27 17 15 18 26 19 16 20 25 21 17 23 18 24 19 25
REMARK SMILES IDX 20 26 24 27 21 28 23 29 22 30
REMARK H PARENT 2 12 26 22
ROOT
ATOM      1  S   UNL     1      20.122   4.072  51.387  1.00  0.00    -0.089 SA
ENDROOT
BRANCH   1   2
ATOM      2  C   UNL     1      20.687   4.142  49.688  1.00  0.00     0.025 A 
ATOM      3  C   UNL     1      21.564   5.121  49.189  1.00  0.00     0.053 A 
ATOM      4  C   UNL     1      22.003   5.061  47.856  1.00  0.00     0.015 A 
ATOM      5  C   UNL     1      21.552   4.051  47.008  1.00  0.00     0.001 A 
ATOM      6  C   UNL     1      20.238   3.135  48.818  1.00  0.00     0.016 A 
ATOM      7  C   UNL     1      20.664   3.091  47.488  1.00  0.00     0.001 A 
BRANCH   3   8
ATOM      8  C   UNL     1      22.106   6.237  50.002  1.00  0.00     0.252 C 
ATOM      9  N   UNL     1      23.441   6.160  50.331  1.00  0.00    -0.355 N 
ATOM     10  O   UNL     1      21.361   7.143  50.361  1.00  0.00    -0.269 OA
ATOM     11  C   UNL     1      24.104   7.233  51.025  1.00  0.00     0.143 C 
ATOM     12  H   UNL     1      24.012   5.458  49.875  1.00  0.00     0.163 HD
ENDBRANCH   3   8
ENDBRANCH   1   2
BRANCH   1  13
ATOM     13  C   UNL     1      21.221   2.822  52.041  1.00  0.00     0.014 A 
ATOM     14  C   UNL     1      22.599   3.065  52.054  1.00  0.00     0.016 A 
ATOM     15  C   UNL     1      20.712   1.605  52.516  1.00  0.00     0.043 A 
ATOM     16  C   UNL     1      23.498   2.111  52.556  1.00  0.00     0.014 A 
ATOM     17  C   UNL     1      21.627   0.675  53.020  1.00  0.00     0.067 A 
ATOM     18  C   UNL     1      22.999   0.892  53.054  1.00  0.00     0.027 A 
ATOM     19  N   UNL     1      21.446  -0.568  53.559  1.00  0.00    -0.277 N 
ATOM     20  C   UNL     1      23.545  -0.295  53.635  1.00  0.00     0.093 A 
ATOM     21  N   UNL     1      22.580  -1.174  53.942  1.00  0.00    -0.175 NA
ATOM     22  H   UNL     1      20.569  -1.059  53.698  1.00  0.00     0.190 HD
BRANCH  20  23
ATOM     23  C   UNL     1      24.943  -0.522  53.873  1.00  0.00     0.033 C 
ATOM     24  C   UNL     1      25.895  -0.492  52.924  1.00  0.00     0.030 C 
BRANCH  24  25
ATOM     25  C   UNL     1      27.326  -0.718  53.143  1.00  0.00     0.063 A 
ATOM     26  C   UNL     1      28.216   0.300  53.478  1.00  0.00     0.028 A 
ATOM     27  N   UNL     1      27.711  -2.012  53.051  1.00  0.00    -0.257 NA
ATOM     28  C   UNL     1      29.553  -0.020  53.706  1.00  0.00     0.004 A 
ATOM     29  C   UNL     1      29.014  -2.295  53.275  1.00  0.00     0.111 A 
ATOM     30  C   UNL     1      29.963  -1.342  53.600  1.00  0.00     0.020 A 
ENDBRANCH  24  25
ENDBRANCH  20  23
ENDBRANCH   1  13
TORSDOF 5
ENDMDL
MODEL 4
REMARK VINA RESULT:    -8.308      6.363      7.513
REMARK INTER + INTRA:         -11.753
REMARK INTER:                 -10.770
REMARK INTRA:                  -0.983
REMARK UNBOUND:                -1.017
REMARK SMILES CNC(=O)c1ccccc1Sc1ccc2c(/C=C/c3ccccn3)n[nH]c2c1
REMARK SMILES IDX 11 1 10 2 5 3 6 4 7 5 9 6 8 7 3 8 2 9 4 10 1 11 12 13 13 14
REMARK SMILES IDX 28 15 14 16 27 17 15 18 26 19 16 20 25 21 17 23 18 24 19 25
REMARK SMILES IDX 20 26 24 27 21 28 23 29 22 30
REMARK H PARENT 2 12 26 22
ROOT
ATOM      1  S   UNL     1      20.230   4.090  51.370  1.00  0.00    -0.089 SA
ENDROOT
BRANCH   1   2
ATOM      2  C   UNL     1      20.474   3.811  49.616  1.00  0.00     0.025 A 
ATOM      3  C   UNL     1      19.624   3.025  48.818  1.00  0.00     0.053 A 
ATOM      4  C   UNL     1      19.859   2.913  47.438  1.00  0.00     0.015 A 
ATOM      5  C   UNL     1      20.950   3.553  46.852  1.00  0.00     0.001 A 
ATOM      6  C   UNL     1      21.571   4.443  49.010  1.00  0.00     0.016 A 
ATOM      7  C   UNL     1      21.810   4.314  47.640  1.00  0.00     0.001 A 
BRANCH   3   8
ATOM      8  C   UNL     1      18.437   2.303  49.336  1.00  0.00     0.252 C 
ATOM      9  N   UNL     1      18.631   0.987  49.691  1.00  0.00    -0.355 N 
ATOM     10  O   UNL     1      17.357   2.880  49.402  1.00  0.00    -0.269 OA
ATOM     11  C   UNL     1      17.583   0.215  50.306  1.00  0.00     0.143 C 
ATOM     12  H   UNL     1      19.580   0.634  49.742  1.00  0.00     0.163 HD
ENDBRANCH   3   8
ENDBRANCH   1   2
BRANCH   1  13
ATOM     13  C   UNL     1      21.301   2.829  52.049  1.00  0.00     0.014 A 
ATOM     14  C   UNL     1      22.686   3.024  52.023  1.00  0.00     0.016 A 
ATOM     15  C   UNL     1      20.761   1.650  52.582  1.00  0.00     0.043 A 
ATOM     16  C   UNL     1      23.563   2.061  52.543  1.00  0.00     0.014 A 
ATOM     17  C   UNL     1      21.656   0.708  53.103  1.00  0.00     0.067 A 
ATOM     18  C   UNL     1      23.034   0.879  53.100  1.00  0.00     0.027 A 
ATOM     19  N   UNL     1      21.445  -0.506  53.694  1.00  0.00    -0.277 N 
ATOM     20  C   UNL     1      23.553  -0.302  53.716  1.00  0.00     0.093 A 
ATOM     21  N   UNL     1      22.567  -1.135  54.077  1.00  0.00    -0.175 NA
ATOM     22  H   UNL     1      20.556  -0.961  53.871  1.00  0.00     0.190 HD
BRANCH  20  23
ATOM     23  C   UNL     1      24.948  -0.568  53.932  1.00  0.00     0.033 C 
ATOM     24  C   UNL     1      25.891  -0.533  52.975  1.00  0.00     0.030 C 
BRANCH  24  25
ATOM     25  C   UNL     1      27.319  -0.797  53.173  1.00  0.00     0.063 A 
ATOM     26  C   UNL     1      28.238   0.194  53.508  1.00  0.00     0.028 A 
ATOM     27  N   UNL     1      27.669  -2.100  53.061  1.00  0.00    -0.257 NA
ATOM     28  C   UNL     1      29.570  -0.163  53.715  1.00  0.00     0.004 A 
ATOM     29  C   UNL     1      28.967  -2.418  53.265  1.00  0.00     0.111 A 
ATOM     30  C   UNL     1      29.945  -1.494  53.589  1.00  0.00     0.020 A 
ENDBRANCH  24  25
ENDBRANCH  20  23
ENDBRANCH   1  13
TORSDOF 5
ENDMDL
MODEL 5
REMARK VINA RESULT:    -8.286      3.550      4.505
REMARK INTER + INTRA:         -11.725
REMARK INTER:                 -10.642
REMARK INTRA:                  -1.083
REMARK UNBOUND:                -1.017
REMARK SMILES CNC(=O)c1ccccc1Sc1ccc2c(/C=C/c3ccccn3)n[nH]c2c1
REMARK SMILES IDX 11 1 10 2 5 3 6 4 7 5 9 6 8 7 3 8 2 9 4 10 1 11 12 13 13 14
REMARK SMILES IDX 28 15 14 16 27 17 15 18 26 19 16 20 25 21 17 23 18 24 19 25
REMARK SMILES IDX 20 26 24 27 21 28 23 29 22 30
REMARK H PARENT 2 12 26 22
ROOT
ATOM      1  S   UNL     1      24.726   3.488  49.655  1.00  0.00    -0.089 SA
ENDROOT
BRANCH   1   2
ATOM      2  C   UNL     1      25.306   2.920  51.252  1.00  0.00     0.025 A 
ATOM      3  C   UNL     1      24.538   2.961  52.429  1.00  0.00     0.053 A 
ATOM      4  C   UNL     1      25.053   2.434  53.625  1.00  0.00     0.015 A 
ATOM      5  C   UNL     1      26.338   1.896  53.665  1.00  0.00     0.001 A 
ATOM      6  C   UNL     1      26.600   2.378  51.312  1.00  0.00     0.016 A 
ATOM      7  C   UNL     1      27.114   1.873  52.508  1.00  0.00     0.001 A 
BRANCH   3   8
ATOM      8  C   UNL     1      23.162   3.510  52.500  1.00  0.00     0.252 C 
ATOM      9  N   UNL     1      22.138   2.622  52.255  1.00  0.00    -0.355 N 
ATOM     10  O   UNL     1      22.996   4.701  52.739  1.00  0.00    -0.269 OA
ATOM     11  C   UNL     1      20.760   3.012  52.399  1.00  0.00     0.143 C 
ATOM     12  H   UNL     1      22.355   1.633  52.210  1.00  0.00     0.163 HD
ENDBRANCH   3   8
ENDBRANCH   1   2
BRANCH   1  13
ATOM     13  C   UNL     1      25.580   5.055  49.539  1.00  0.00     0.014 A 
ATOM     14  C   UNL     1      26.731   5.147  48.749  1.00  0.00     0.016 A 
ATOM     15  C   UNL     1      25.117   6.171  50.249  1.00  0.00     0.043 A 
ATOM     16  C   UNL     1      27.434   6.356  48.632  1.00  0.00     0.014 A 
ATOM     17  C   UNL     1      25.830   7.367  50.109  1.00  0.00     0.067 A 
ATOM     18  C   UNL     1      26.968   7.491  49.323  1.00  0.00     0.027 A 
ATOM     19  N   UNL     1      25.625   8.607  50.645  1.00  0.00    -0.277 N 
ATOM     20  C   UNL     1      27.367   8.857  49.466  1.00  0.00     0.093 A 
ATOM     21  N   UNL     1      26.531   9.525  50.274  1.00  0.00    -0.175 NA
ATOM     22  H   UNL     1      24.880   8.895  51.270  1.00  0.00     0.190 HD
BRANCH  20  23
ATOM     23  C   UNL     1      28.507   9.449  48.824  1.00  0.00     0.033 C 
ATOM     24  C   UNL     1      29.785   9.114  49.075  1.00  0.00     0.030 C 
BRANCH  24  25
ATOM     25  C   UNL     1      30.963   9.702  48.431  1.00  0.00     0.063 A 
ATOM     26  C   UNL     1      32.042   8.946  47.980  1.00  0.00     0.028 A 
ATOM     27  N   UNL     1      30.896  11.042  48.255  1.00  0.00    -0.257 NA
ATOM     28  C   UNL     1      33.100   9.592  47.343  1.00  0.00     0.004 A 
ATOM     29  C   UNL     1      31.937  11.644  47.636  1.00  0.00     0.111 A 
ATOM     30  C   UNL     1      33.051  10.969  47.169  1.00  0.00     0.020 A 
ENDBRANCH  24  25
ENDBRANCH  20  23
ENDBRANCH   1  13
TORSDOF 5
ENDMDL
MODEL 6
REMARK VINA RESULT:    -8.250      4.088      8.637
REMARK INTER + INTRA:         -11.679
REMARK INTER:                 -10.653
REMARK INTRA:                  -1.026
REMARK UNBOUND:                -1.017
REMARK SMILES CNC(=O)c1ccccc1Sc1ccc2c(/C=C/c3ccccn3)n[nH]c2c1
REMARK SMILES IDX 11 1 10 2 5 3 6 4 7 5 9 6 8 7 3 8 2 9 4 10 1 11 12 13 13 14
REMARK SMILES IDX 28 15 14 16 27 17 15 18 26 19 16 20 25 21 17 23 18 24 19 25
REMARK SMILES IDX 20 26 24 27 21 28 23 29 22 30
REMARK H PARENT 2 12 26 22
ROOT
ATOM      1  S   UNL     1      29.339   8.467  46.252  1.00  0.00    -0.089 SA
ENDROOT
BRANCH   1   2
ATOM      2  C   UNL     1      29.556   9.798  47.433  1.00  0.00     0.025 A 
ATOM      3  C   UNL     1      30.536   9.805  48.441  1.00  0.00     0.053 A 
ATOM      4  C   UNL     1      30.673  10.920  49.283  1.00  0.00     0.015 A 
ATOM      5  C   UNL     1      29.823  12.016  49.148  1.00  0.00     0.001 A 
ATOM      6  C   UNL     1      28.705  10.908  47.315  1.00  0.00     0.016 A 
ATOM      7  C   UNL     1      28.834  12.007  48.167  1.00  0.00     0.001 A 
BRANCH   3   8
ATOM      8  C   UNL     1      31.492   8.694  48.672  1.00  0.00     0.252 C 
ATOM      9  N   UNL     1      31.141   7.780  49.640  1.00  0.00    -0.355 N 
ATOM     10  O   UNL     1      32.536   8.649  48.031  1.00  0.00    -0.269 OA
ATOM     11  C   UNL     1      31.933   6.602  49.879  1.00  0.00     0.143 C 
ATOM     12  H   UNL     1      30.200   7.810  50.016  1.00  0.00     0.163 HD
ENDBRANCH   3   8
ENDBRANCH   1   2
BRANCH   1  13
ATOM     13  C   UNL     1      28.415   7.302  47.246  1.00  0.00     0.014 A 
ATOM     14  C   UNL     1      29.026   6.106  47.638  1.00  0.00     0.016 A 
ATOM     15  C   UNL     1      27.088   7.573  47.609  1.00  0.00     0.043 A 
ATOM     16  C   UNL     1      28.337   5.162  48.416  1.00  0.00     0.014 A 
ATOM     17  C   UNL     1      26.426   6.621  48.392  1.00  0.00     0.067 A 
ATOM     18  C   UNL     1      27.010   5.430  48.805  1.00  0.00     0.027 A 
ATOM     19  N   UNL     1      25.162   6.602  48.911  1.00  0.00    -0.277 N 
ATOM     20  C   UNL     1      25.998   4.769  49.569  1.00  0.00     0.093 A 
ATOM     21  N   UNL     1      24.877   5.503  49.627  1.00  0.00    -0.175 NA
ATOM     22  H   UNL     1      24.445   7.312  48.818  1.00  0.00     0.190 HD
BRANCH  20  23
ATOM     23  C   UNL     1      26.154   3.490  50.203  1.00  0.00     0.033 C 
ATOM     24  C   UNL     1      25.394   3.042  51.218  1.00  0.00     0.030 C 
BRANCH  24  25
ATOM     25  C   UNL     1      25.533   1.741  51.878  1.00  0.00     0.063 A 
ATOM     26  C   UNL     1      26.677   0.953  51.777  1.00  0.00     0.028 A 
ATOM     27  N   UNL     1      24.477   1.387  52.647  1.00  0.00    -0.257 NA
ATOM     28  C   UNL     1      26.730  -0.252  52.475  1.00  0.00     0.004 A 
ATOM     29  C   UNL     1      24.554   0.212  53.311  1.00  0.00     0.111 A 
ATOM     30  C   UNL     1      25.648  -0.634  53.256  1.00  0.00     0.020 A 
ENDBRANCH  24  25
ENDBRANCH  20  23
ENDBRANCH   1  13
TORSDOF 5
ENDMDL
MODEL 7
REMARK VINA RESULT:    -8.181      3.513      9.207
REMARK INTER + INTRA:         -11.590
REMARK INTER:                 -10.914
REMARK INTRA:                  -0.676
REMARK UNBOUND:                -1.017
REMARK SMILES CNC(=O)c1ccccc1Sc1ccc2c(/C=C/c3ccccn3)n[nH]c2c1
REMARK SMILES IDX 11 1 10 2 5 3 6 4 7 5 9 6 8 7 3 8 2 9 4 10 1 11 12 13 13 14
REMARK SMILES IDX 28 15 14 16 27 17 15 18 26 19 16 20 25 21 17 23 18 24 19 25
REMARK SMILES IDX 20 26 24 27 21 28 23 29 22 30
REMARK H PARENT 2 12 26 22
ROOT
ATOM      1  S   UNL     1      28.567   7.382  47.208  1.00  0.00    -0.089 SA
ENDROOT
BRANCH   1   2
ATOM      2  C   UNL     1      30.142   7.065  48.002  1.00  0.00     0.025 A 
ATOM      3  C   UNL     1      30.786   7.970  48.864  1.00  0.00     0.053 A 
ATOM      4  C   UNL     1      31.990   7.610  49.491  1.00  0.00     0.015 A 
ATOM      5  C   UNL     1      32.574   6.369  49.243  1.00  0.00     0.001 A 
ATOM      6  C   UNL     1      30.747   5.822  47.759  1.00  0.00     0.016 A 
ATOM      7  C   UNL     1      31.954   5.477  48.371  1.00  0.00     0.001 A 
BRANCH   3   8
ATOM      8  C   UNL     1      30.255   9.315  49.198  1.00  0.00     0.252 C 
ATOM      9  N   UNL     1      31.002  10.388  48.770  1.00  0.00    -0.355 N 
ATOM     10  O   UNL     1      29.218   9.413  49.845  1.00  0.00    -0.269 OA
ATOM     11  C   UNL     1      30.536  11.740  48.940  1.00  0.00     0.143 C 
ATOM     12  H   UNL     1      31.763  10.222  48.122  1.00  0.00     0.163 HD
ENDBRANCH   3   8
ENDBRANCH   1   2
BRANCH   1  13
ATOM     13  C   UNL     1      27.471   6.476  48.293  1.00  0.00     0.014 A 
ATOM     14  C   UNL     1      27.630   5.092  48.421  1.00  0.00     0.016 A 
ATOM     15  C   UNL     1      26.452   7.140  48.990  1.00  0.00     0.043 A 
ATOM     16  C   UNL     1      26.791   4.342  49.258  1.00  0.00     0.014 A 
ATOM     17  C   UNL     1      25.635   6.372  49.826  1.00  0.00     0.067 A 
ATOM     18  C   UNL     1      25.775   4.998  49.980  1.00  0.00     0.027 A 
ATOM     19  N   UNL     1      24.588   6.720  50.633  1.00  0.00    -0.277 N 
ATOM     20  C   UNL     1      24.752   4.626  50.907  1.00  0.00     0.093 A 
ATOM     21  N   UNL     1      24.040   5.693  51.299  1.00  0.00    -0.175 NA
ATOM     22  H   UNL     1      24.202   7.646  50.778  1.00  0.00     0.190 HD
BRANCH  20  23
ATOM     23  C   UNL     1      24.515   3.288  51.372  1.00  0.00     0.033 C 
ATOM     24  C   UNL     1      23.726   2.968  52.412  1.00  0.00     0.030 C 
BRANCH  24  25
ATOM     25  C   UNL     1      23.467   1.612  52.903  1.00  0.00     0.063 A 
ATOM     26  C   UNL     1      24.479   0.705  53.207  1.00  0.00     0.028 A 
ATOM     27  N   UNL     1      22.158   1.324  53.093  1.00  0.00    -0.257 NA
ATOM     28  C   UNL     1      24.134  -0.550  53.706  1.00  0.00     0.004 A 
ATOM     29  C   UNL     1      21.851   0.099  53.576  1.00  0.00     0.111 A 
ATOM     30  C   UNL     1      22.794  -0.863  53.892  1.00  0.00     0.020 A 
ENDBRANCH  24  25
ENDBRANCH  20  23
ENDBRANCH   1  13
TORSDOF 5
ENDMDL
MODEL 8
REMARK VINA RESULT:    -7.973      5.648      7.527
REMARK INTER + INTRA:         -11.320
REMARK INTER:                 -10.395
REMARK INTRA:                  -0.926
REMARK UNBOUND:                -1.017
REMARK SMILES CNC(=O)c1ccccc1Sc1ccc2c(/C=C/c3ccccn3)n[nH]c2c1
REMARK SMILES IDX 11 1 10 2 5 3 6 4 7 5 9 6 8 7 3 8 2 9 4 10 1 11 12 13 13 14
REMARK SMILES IDX 28 15 14 16 27 17 15 18 26 19 16 20 25 21 17 23 18 24 19 25
REMARK SMILES IDX 20 26 24 27 21 28 23 29 22 30
REMARK H PARENT 2 12 26 22
ROOT
ATOM      1  S   UNL     1      20.218   4.259  50.697  1.00  0.00    -0.089 SA
ENDROOT
BRANCH   1   2
ATOM      2  C   UNL     1      21.434   5.456  50.151  1.00  0.00     0.025 A 
ATOM      3  C   UNL     1      22.107   5.390  48.918  1.00  0.00     0.053 A 
ATOM      4  C   UNL     1      22.999   6.409  48.546  1.00  0.00     0.015 A 
ATOM      5  C   UNL     1      23.249   7.478  49.405  1.00  0.00     0.001 A 
ATOM      6  C   UNL     1      21.702   6.538  51.005  1.00  0.00     0.016 A 
ATOM      7  C   UNL     1      22.604   7.538  50.638  1.00  0.00     0.001 A 
BRANCH   3   8
ATOM      8  C   UNL     1      21.916   4.299  47.930  1.00  0.00     0.252 C 
ATOM      9  N   UNL     1      20.930   4.495  46.990  1.00  0.00    -0.355 N 
ATOM     10  O   UNL     1      22.604   3.287  48.004  1.00  0.00    -0.269 OA
ATOM     11  C   UNL     1      20.723   3.559  45.917  1.00  0.00     0.143 C 
ATOM     12  H   UNL     1      20.511   5.415  46.912  1.00  0.00     0.163 HD
ENDBRANCH   3   8
ENDBRANCH   1   2
BRANCH   1  13
ATOM     13  C   UNL     1      21.284   3.043  51.462  1.00  0.00     0.014 A 
ATOM     14  C   UNL     1      22.656   3.300  51.553  1.00  0.00     0.016 A 
ATOM     15  C   UNL     1      20.755   1.838  51.945  1.00  0.00     0.043 A 
ATOM     16  C   UNL     1      23.529   2.373  52.143  1.00  0.00     0.014 A 
ATOM     17  C   UNL     1      21.644   0.934  52.537  1.00  0.00     0.067 A 
ATOM     18  C   UNL     1      23.009   1.167  52.651  1.00  0.00     0.027 A 
ATOM     19  N   UNL     1      21.439  -0.292  53.106  1.00  0.00    -0.277 N 
ATOM     20  C   UNL     1      23.527   0.006  53.305  1.00  0.00     0.093 A 
ATOM     21  N   UNL     1      22.551  -0.872  53.580  1.00  0.00    -0.175 NA
ATOM     22  H   UNL     1      20.559  -0.786  53.207  1.00  0.00     0.190 HD
BRANCH  20  23
ATOM     23  C   UNL     1      24.908  -0.199  53.638  1.00  0.00     0.033 C 
ATOM     24  C   UNL     1      25.904  -0.305  52.741  1.00  0.00     0.030 C 
BRANCH  24  25
ATOM     25  C   UNL     1      27.320  -0.511  53.057  1.00  0.00     0.063 A 
ATOM     26  C   UNL     1      28.177   0.523  53.425  1.00  0.00     0.028 A 
ATOM     27  N   UNL     1      27.721  -1.803  53.019  1.00  0.00    -0.257 NA
ATOM     28  C   UNL     1      29.500   0.222  53.746  1.00  0.00     0.004 A 
ATOM     29  C   UNL     1      29.009  -2.067  53.333  1.00  0.00     0.111 A 
ATOM     30  C   UNL     1      29.928  -1.098  53.697  1.00  0.00     0.020 A 
ENDBRANCH  24  25
ENDBRANCH  20  23
ENDBRANCH   1  13
TORSDOF 5
ENDMDL
MODEL 9
REMARK VINA RESULT:    -7.818      2.282      3.147
REMARK INTER + INTRA:         -11.121
REMARK INTER:                 -10.070
REMARK INTRA:                  -1.051
REMARK UNBOUND:                -1.017
REMARK SMILES CNC(=O)c1ccccc1Sc1ccc2c(/C=C/c3ccccn3)n[nH]c2c1
REMARK SMILES IDX 11 1 10 2 5 3 6 4 7 5 9 6 8 7 3 8 2 9 4 10 1 11 12 13 13 14
REMARK SMILES IDX 28 15 14 16 27 17 15 18 26 19 16 20 25 21 17 23 18 24 19 25
REMARK SMILES IDX 20 26 24 27 21 28 23 29 22 30
REMARK H PARENT 2 12 26 22
ROOT
ATOM      1  S   UNL     1      23.954   5.219  50.271  1.00  0.00    -0.089 SA
ENDROOT
BRANCH   1   2
ATOM      2  C   UNL     1      23.136   4.438  48.880  1.00  0.00     0.025 A 
ATOM      3  C   UNL     1      22.560   5.143  47.809  1.00  0.00     0.053 A 
ATOM      4  C   UNL     1      21.995   4.444  46.729  1.00  0.00     0.015 A 
ATOM      5  C   UNL     1      21.972   3.050  46.723  1.00  0.00     0.001 A 
ATOM      6  C   UNL     1      23.099   3.035  48.860  1.00  0.00     0.016 A 
ATOM      7  C   UNL     1      22.520   2.346  47.793  1.00  0.00     0.001 A 
BRANCH   3   8
ATOM      8  C   UNL     1      22.529   6.623  47.713  1.00  0.00     0.252 C 
ATOM      9  N   UNL     1      23.396   7.193  46.808  1.00  0.00    -0.355 N 
ATOM     10  O   UNL     1      21.776   7.262  48.440  1.00  0.00    -0.269 OA
ATOM     11  C   UNL     1      23.383   8.609  46.549  1.00  0.00     0.143 C 
ATOM     12  H   UNL     1      23.874   6.589  46.149  1.00  0.00     0.163 HD
ENDBRANCH   3   8
ENDBRANCH   1   2
BRANCH   1  13
ATOM     13  C   UNL     1      25.557   5.558  49.554  1.00  0.00     0.014 A 
ATOM     14  C   UNL     1      26.440   4.496  49.328  1.00  0.00     0.016 A 
ATOM     15  C   UNL     1      25.933   6.872  49.243  1.00  0.00     0.043 A 
ATOM     16  C   UNL     1      27.709   4.717  48.770  1.00  0.00     0.014 A 
ATOM     17  C   UNL     1      27.200   7.064  48.679  1.00  0.00     0.067 A 
ATOM     18  C   UNL     1      28.093   6.029  48.434  1.00  0.00     0.027 A 
ATOM     19  N   UNL     1      27.837   8.198  48.260  1.00  0.00    -0.277 N 
ATOM     20  C   UNL     1      29.242   6.662  47.864  1.00  0.00     0.093 A 
ATOM     21  N   UNL     1      29.065   7.988  47.761  1.00  0.00    -0.175 NA
ATOM     22  H   UNL     1      27.485   9.149  48.281  1.00  0.00     0.190 HD
BRANCH  20  23
ATOM     23  C   UNL     1      30.432   5.976  47.446  1.00  0.00     0.033 C 
ATOM     24  C   UNL     1      31.212   5.236  48.252  1.00  0.00     0.030 C 
BRANCH  24  25
ATOM     25  C   UNL     1      32.428   4.526  47.847  1.00  0.00     0.063 A 
ATOM     26  C   UNL     1      32.423   3.447  46.966  1.00  0.00     0.028 A 
ATOM     27  N   UNL     1      33.573   5.038  48.354  1.00  0.00    -0.257 NA
ATOM     28  C   UNL     1      33.636   2.861  46.609  1.00  0.00     0.004 A 
ATOM     29  C   UNL     1      34.735   4.450  47.994  1.00  0.00     0.111 A 
ATOM     30  C   UNL     1      34.817   3.369  47.134  1.00  0.00     0.020 A 
ENDBRANCH  24  25
ENDBRANCH  20  23
ENDBRANCH   1  13
TORSDOF 5
ENDMDL
MODEL 10
REMARK VINA RESULT:    -7.817      3.715      8.460
REMARK INTER + INTRA:         -11.119
REMARK INTER:                 -10.185
REMARK INTRA:                  -0.934
REMARK UNBOUND:                -1.017
REMARK SMILES CNC(=O)c1ccccc1Sc1ccc2c(/C=C/c3ccccn3)n[nH]c2c1
REMARK SMILES IDX 11 1 10 2 5 3 6 4 7 5 9 6 8 7 3 8 2 9 4 10 1 11 12 13 13 14
REMARK SMILES IDX 28 15 14 16 27 17 15 18 26 19 16 20 25 21 17 23 18 24 19 25
REMARK SMILES IDX 20 26 24 27 21 28 23 29 22 30
REMARK H PARENT 2 12 26 22
ROOT
ATOM      1  S   UNL     1      28.867   7.872  46.694  1.00  0.00    -0.089 SA
ENDROOT
BRANCH   1   2
ATOM      2  C   UNL     1      30.364   7.832  47.677  1.00  0.00     0.025 A 
ATOM      3  C   UNL     1      30.617   8.689  48.764  1.00  0.00     0.053 A 
ATOM      4  C   UNL     1      31.793   8.543  49.517  1.00  0.00     0.015 A 
ATOM      5  C   UNL     1      32.734   7.572  49.178  1.00  0.00     0.001 A 
ATOM      6  C   UNL     1      31.326   6.863  47.348  1.00  0.00     0.016 A 
ATOM      7  C   UNL     1      32.502   6.736  48.089  1.00  0.00     0.001 A 
BRANCH   3   8
ATOM      8  C   UNL     1      29.686   9.754  49.210  1.00  0.00     0.252 C 
ATOM      9  N   UNL     1      30.001  11.038  48.826  1.00  0.00    -0.355 N 
ATOM     10  O   UNL     1      28.718   9.462  49.903  1.00  0.00    -0.269 OA
ATOM     11  C   UNL     1      29.119  12.141  49.106  1.00  0.00     0.143 C 
ATOM     12  H   UNL     1      30.732  11.172  48.137  1.00  0.00     0.163 HD
ENDBRANCH   3   8
ENDBRANCH   1   2
BRANCH   1  13
ATOM     13  C   UNL     1      27.822   6.781  47.653  1.00  0.00     0.014 A 
ATOM     14  C   UNL     1      28.328   5.545  48.068  1.00  0.00     0.016 A 
ATOM     15  C   UNL     1      26.507   7.151  47.965  1.00  0.00     0.043 A 
ATOM     16  C   UNL     1      27.543   4.657  48.820  1.00  0.00     0.014 A 
ATOM     17  C   UNL     1      25.747   6.252  48.723  1.00  0.00     0.067 A 
ATOM     18  C   UNL     1      26.225   5.023  49.158  1.00  0.00     0.027 A 
ATOM     19  N   UNL     1      24.466   6.328  49.194  1.00  0.00    -0.277 N 
ATOM     20  C   UNL     1      25.139   4.441  49.883  1.00  0.00     0.093 A 
ATOM     21  N   UNL     1      24.074   5.255  49.899  1.00  0.00    -0.175 NA
ATOM     22  H   UNL     1      23.807   7.089  49.073  1.00  0.00     0.190 HD
BRANCH  20  23
ATOM     23  C   UNL     1      25.177   3.156  50.523  1.00  0.00     0.033 C 
ATOM     24  C   UNL     1      26.035   2.812  51.499  1.00  0.00     0.030 C 
BRANCH  24  25
ATOM     25  C   UNL     1      26.090   1.510  52.169  1.00  0.00     0.063 A 
ATOM     26  C   UNL     1      24.954   0.806  52.562  1.00  0.00     0.028 A 
ATOM     27  N   UNL     1      27.338   1.011  52.325  1.00  0.00    -0.257 NA
ATOM     28  C   UNL     1      25.107  -0.445  53.156  1.00  0.00     0.004 A 
ATOM     29  C   UNL     1      27.458  -0.203  52.906  1.00  0.00     0.111 A 
ATOM     30  C   UNL     1      26.383  -0.961  53.336  1.00  0.00     0.020 A 
ENDBRANCH  24  25
ENDBRANCH  20  23
ENDBRANCH   1  13
TORSDOF 5
ENDMDL
MODEL 11
REMARK VINA RESULT:    -7.802      3.937      9.799
REMARK INTER + INTRA:         -11.101
REMARK INTER:                 -10.230
REMARK INTRA:                  -0.870
REMARK UNBOUND:                -1.017
REMARK SMILES CNC(=O)c1ccccc1Sc1ccc2c(/C=C/c3ccccn3)n[nH]c2c1
REMARK SMILES IDX 11 1 10 2 5 3 6 4 7 5 9 6 8 7 3 8 2 9 4 10 1 11 12 13 13 14
REMARK SMILES IDX 28 15 14 16 27 17 15 18 26 19 16 20 25 21 17 23 18 24 19 25
REMARK SMILES IDX 20 26 24 27 21 28 23 29 22 30
REMARK H PARENT 2 12 26 22
ROOT
ATOM      1  S   UNL     1      33.720   7.197  48.119  1.00  0.00    -0.089 SA
ENDROOT
BRANCH   1   2
ATOM      2  C   UNL     1      34.089   5.654  47.286  1.00  0.00     0.025 A 
ATOM      3  C   UNL     1      34.022   5.475  45.893  1.00  0.00     0.053 A 
ATOM      4  C   UNL     1      34.390   4.246  45.322  1.00  0.00     0.015 A 
ATOM      5  C   UNL     1      34.795   3.184  46.130  1.00  0.00     0.001 A 
ATOM      6  C   UNL     1      34.494   4.572  48.084  1.00  0.00     0.016 A 
ATOM      7  C   UNL     1      34.841   3.347  47.512  1.00  0.00     0.001 A 
BRANCH   3   8
ATOM      8  C   UNL     1      33.606   6.535  44.943  1.00  0.00     0.252 C 
ATOM      9  N   UNL     1      34.604   7.358  44.473  1.00  0.00    -0.355 N 
ATOM     10  O   UNL     1      32.422   6.650  44.643  1.00  0.00    -0.269 OA
ATOM     11  C   UNL     1      34.342   8.353  43.466  1.00  0.00     0.143 C 
ATOM     12  H   UNL     1      35.568   7.104  44.656  1.00  0.00     0.163 HD
ENDBRANCH   3   8
ENDBRANCH   1   2
BRANCH   1  13
ATOM     13  C   UNL     1      31.941   7.072  48.258  1.00  0.00     0.014 A 
ATOM     14  C   UNL     1      31.311   5.878  47.890  1.00  0.00     0.016 A 
ATOM     15  C   UNL     1      31.185   8.163  48.708  1.00  0.00     0.043 A 
ATOM     16  C   UNL     1      29.918   5.737  47.980  1.00  0.00     0.014 A 
ATOM     17  C   UNL     1      29.799   7.994  48.798  1.00  0.00     0.067 A 
ATOM     18  C   UNL     1      29.147   6.818  48.450  1.00  0.00     0.027 A 
ATOM     19  N   UNL     1      28.811   8.845  49.209  1.00  0.00    -0.277 N 
ATOM     20  C   UNL     1      27.762   7.079  48.692  1.00  0.00     0.093 A 
ATOM     21  N   UNL     1      27.577   8.322  49.160  1.00  0.00    -0.175 NA
ATOM     22  H   UNL     1      28.915   9.798  49.541  1.00  0.00     0.190 HD
BRANCH  20  23
ATOM     23  C   UNL     1      26.701   6.137  48.473  1.00  0.00     0.033 C 
ATOM     24  C   UNL     1      25.847   5.713  49.421  1.00  0.00     0.030 C 
BRANCH  24  25
ATOM     25  C   UNL     1      24.755   4.756  49.221  1.00  0.00     0.063 A 
ATOM     26  C   UNL     1      24.724   3.500  49.820  1.00  0.00     0.028 A 
ATOM     27  N   UNL     1      23.742   5.213  48.448  1.00  0.00    -0.257 NA
ATOM     28  C   UNL     1      23.622   2.674  49.601  1.00  0.00     0.004 A 
ATOM     29  C   UNL     1      22.687   4.392  48.250  1.00  0.00     0.111 A 
ATOM     30  C   UNL     1      22.583   3.126  48.798  1.00  0.00     0.020 A 
ENDBRANCH  24  25
ENDBRANCH  20  23
ENDBRANCH   1  13
TORSDOF 5
ENDMDL
MODEL 12
REMARK VINA RESULT:    -7.776      4.670      8.641
REMARK INTER + INTRA:         -11.066
REMARK INTER:                 -10.120
REMARK INTRA:                  -0.946
REMARK UNBOUND:                -1.017
REMARK SMILES CNC(=O)c1ccccc1Sc1ccc2c(/C=C/c3ccccn3)n[nH]c2c1
REMARK SMILES IDX 11 1 10 2 5 3 6 4 7 5 9 6 8 7 3 8 2 9 4 10 1 11 12 13 13 14
REMARK SMILES IDX 28 15 14 16 27 17 15 18 26 19 16 20 25 21 17 23 18 24 19 25
REMARK SMILES IDX 20 26 24 27 21 28 23 29 22 30
REMARK H PARENT 2 12 26 22
ROOT
ATOM      1  S   UNL     1      27.983   9.178  46.160  1.00  0.00    -0.089 SA
ENDROOT
BRANCH   1   2
ATOM      2  C   UNL     1      29.004  10.086  47.321  1.00  0.00     0.025 A 
ATOM      3  C   UNL     1      30.408  10.030  47.347  1.00  0.00     0.053 A 
ATOM      4  C   UNL     1      31.129  10.825  48.252  1.00  0.00     0.015 A 
ATOM      5  C   UNL     1      30.461  11.653  49.153  1.00  0.00     0.001 A 
ATOM      6  C   UNL     1      28.347  10.921  48.239  1.00  0.00     0.016 A 
ATOM      7  C   UNL     1      29.069  11.696  49.150  1.00  0.00     0.001 A 
BRANCH   3   8
ATOM      8  C   UNL     1      31.219   9.185  46.435  1.00  0.00     0.252 C 
ATOM      9  N   UNL     1      31.522   9.731  45.208  1.00  0.00    -0.355 N 
ATOM     10  O   UNL     1      31.553   8.060  46.789  1.00  0.00    -0.269 OA
ATOM     11  C   UNL     1      32.390   9.052  44.281  1.00  0.00     0.143 C 
ATOM     12  H   UNL     1      31.331  10.714  45.055  1.00  0.00     0.163 HD
ENDBRANCH   3   8
ENDBRANCH   1   2
BRANCH   1  13
ATOM     13  C   UNL     1      27.520   7.775  47.167  1.00  0.00     0.014 A 
ATOM     14  C   UNL     1      28.507   6.869  47.570  1.00  0.00     0.016 A 
ATOM     15  C   UNL     1      26.182   7.572  47.531  1.00  0.00     0.043 A 
ATOM     16  C   UNL     1      28.188   5.753  48.358  1.00  0.00     0.014 A 
ATOM     17  C   UNL     1      25.890   6.457  48.325  1.00  0.00     0.067 A 
ATOM     18  C   UNL     1      26.850   5.547  48.748  1.00  0.00     0.027 A 
ATOM     19  N   UNL     1      24.710   6.005  48.847  1.00  0.00    -0.277 N 
ATOM     20  C   UNL     1      26.129   4.584  49.520  1.00  0.00     0.093 A 
ATOM     21  N   UNL     1      24.823   4.883  49.574  1.00  0.00    -0.175 NA
ATOM     22  H   UNL     1      23.791   6.422  48.748  1.00  0.00     0.190 HD
BRANCH  20  23
ATOM     23  C   UNL     1      26.719   3.445  50.166  1.00  0.00     0.033 C 
ATOM     24  C   UNL     1      26.286   2.912  51.322  1.00  0.00     0.030 C 
BRANCH  24  25
ATOM     25  C   UNL     1      26.869   1.750  51.998  1.00  0.00     0.063 A 
ATOM     26  C   UNL     1      26.380   0.455  51.846  1.00  0.00     0.028 A 
ATOM     27  N   UNL     1      27.965   2.025  52.743  1.00  0.00    -0.257 NA
ATOM     28  C   UNL     1      27.028  -0.593  52.499  1.00  0.00     0.004 A 
ATOM     29  C   UNL     1      28.572   0.991  53.367  1.00  0.00     0.111 A 
ATOM     30  C   UNL     1      28.144  -0.321  53.278  1.00  0.00     0.020 A 
ENDBRANCH  24  25
ENDBRANCH  20  23
ENDBRANCH   1  13
TORSDOF 5
ENDMDL
MODEL 13
REMARK VINA RESULT:    -7.746      3.910      9.257
REMARK INTER + INTRA:         -11.028
REMARK INTER:                  -9.980
REMARK INTRA:                  -1.047
REMARK UNBOUND:                -1.017
REMARK SMILES CNC(=O)c1ccccc1Sc1ccc2c(/C=C/c3ccccn3)n[nH]c2c1
REMARK SMILES IDX 11 1 10 2 5 3 6 4 7 5 9 6 8 7 3 8 2 9 4 10 1 11 12 13 13 14
REMARK SMILES IDX 28 15 14 16 27 17 15 18 26 19 16 20 25 21 17 23 18 24 19 25
REMARK SMILES IDX 20 26 24 27 21 28 23 29 22 30
REMARK H PARENT 2 12 26 22
ROOT
ATOM      1  S   UNL     1      33.633   6.415  48.179  1.00  0.00    -0.089 SA
ENDROOT
BRANCH   1   2
ATOM      2  C   UNL     1      33.787   5.909  46.467  1.00  0.00     0.025 A 
ATOM      3  C   UNL     1      33.991   4.581  46.053  1.00  0.00     0.053 A 
ATOM      4  C   UNL     1      34.036   4.268  44.684  1.00  0.00     0.015 A 
ATOM      5  C   UNL     1      33.912   5.272  43.725  1.00  0.00     0.001 A 
ATOM      6  C   UNL     1      33.669   6.908  45.487  1.00  0.00     0.016 A 
ATOM      7  C   UNL     1      33.734   6.593  44.128  1.00  0.00     0.001 A 
BRANCH   3   8
ATOM      8  C   UNL     1      34.135   3.437  46.987  1.00  0.00     0.252 C 
ATOM      9  N   UNL     1      32.995   2.708  47.238  1.00  0.00    -0.355 N 
ATOM     10  O   UNL     1      35.225   3.210  47.502  1.00  0.00    -0.269 OA
ATOM     11  C   UNL     1      33.033   1.514  48.041  1.00  0.00     0.143 C 
ATOM     12  H   UNL     1      32.177   2.873  46.663  1.00  0.00     0.163 HD
ENDBRANCH   3   8
ENDBRANCH   1   2
BRANCH   1  13
ATOM     13  C   UNL     1      31.857   6.588  48.306  1.00  0.00     0.014 A 
ATOM     14  C   UNL     1      31.040   5.516  47.930  1.00  0.00     0.016 A 
ATOM     15  C   UNL     1      31.291   7.788  48.757  1.00  0.00     0.043 A 
ATOM     16  C   UNL     1      29.642   5.609  48.011  1.00  0.00     0.014 A 
ATOM     17  C   UNL     1      29.895   7.852  48.838  1.00  0.00     0.067 A 
ATOM     18  C   UNL     1      29.059   6.802  48.481  1.00  0.00     0.027 A 
ATOM     19  N   UNL     1      29.060   8.855  49.247  1.00  0.00    -0.277 N 
ATOM     20  C   UNL     1      27.735   7.290  48.715  1.00  0.00     0.093 A 
ATOM     21  N   UNL     1      27.757   8.545  49.188  1.00  0.00    -0.175 NA
ATOM     22  H   UNL     1      29.320   9.775  49.583  1.00  0.00     0.190 HD
BRANCH  20  23
ATOM     23  C   UNL     1      26.533   6.539  48.486  1.00  0.00     0.033 C 
ATOM     24  C   UNL     1      26.089   5.545  49.276  1.00  0.00     0.030 C 
BRANCH  24  25
ATOM     25  C   UNL     1      24.865   4.768  49.064  1.00  0.00     0.063 A 
ATOM     26  C   UNL     1      24.703   3.462  49.519  1.00  0.00     0.028 A 
ATOM     27  N   UNL     1      23.873   5.442  48.437  1.00  0.00    -0.257 NA
ATOM     28  C   UNL     1      23.486   2.818  49.304  1.00  0.00     0.004 A 
ATOM     29  C   UNL     1      22.704   4.794  48.239  1.00  0.00     0.111 A 
ATOM     30  C   UNL     1      22.466   3.494  48.648  1.00  0.00     0.020 A 
ENDBRANCH  24  25
ENDBRANCH  20  23
ENDBRANCH   1  13
TORSDOF 5
ENDMDL
MODEL 14
REMARK VINA RESULT:    -7.711      1.274      1.374
REMARK INTER + INTRA:         -10.983
REMARK INTER:                 -10.198
REMARK INTRA:                  -0.785
REMARK UNBOUND:                -1.017
REMARK SMILES CNC(=O)c1ccccc1Sc1ccc2c(/C=C/c3ccccn3)n[nH]c2c1
REMARK SMILES IDX 11 1 10 2 5 3 6 4 7 5 9 6 8 7 3 8 2 9 4 10 1 11 12 13 13 14
REMARK SMILES IDX 28 15 14 16 27 17 15 18 26 19 16 20 25 21 17 23 18 24 19 25
REMARK SMILES IDX 20 26 24 27 21 28 23 29 22 30
REMARK H PARENT 2 12 26 22
ROOT
ATOM      1  S   UNL     1      23.397   3.827  51.526  1.00  0.00    -0.089 SA
ENDROOT
BRANCH   1   2
ATOM      2  C   UNL     1      22.669   2.657  50.380  1.00  0.00     0.025 A 
ATOM      3  C   UNL     1      22.000   1.483  50.771  1.00  0.00     0.053 A 
ATOM      4  C   UNL     1      21.406   0.656  49.804  1.00  0.00     0.015 A 
ATOM      5  C   UNL     1      21.498   0.972  48.450  1.00  0.00     0.001 A 
ATOM      6  C   UNL     1      22.757   2.957  49.011  1.00  0.00     0.016 A 
ATOM      7  C   UNL     1      22.180   2.121  48.054  1.00  0.00     0.001 A 
BRANCH   3   8
ATOM      8  C   UNL     1      21.843   1.053  52.182  1.00  0.00     0.252 C 
ATOM      9  N   UNL     1      22.734   0.105  52.633  1.00  0.00    -0.355 N 
ATOM     10  O   UNL     1      20.937   1.523  52.861  1.00  0.00    -0.269 OA
ATOM     11  C   UNL     1      22.749  -0.312  54.010  1.00  0.00     0.143 C 
ATOM     12  H   UNL     1      23.535  -0.120  52.054  1.00  0.00     0.163 HD
ENDBRANCH   3   8
ENDBRANCH   1   2
BRANCH   1  13
ATOM     13  C   UNL     1      24.835   4.339  50.595  1.00  0.00     0.014 A 
ATOM     14  C   UNL     1      25.842   3.405  50.328  1.00  0.00     0.016 A 
ATOM     15  C   UNL     1      24.963   5.664  50.156  1.00  0.00     0.043 A 
ATOM     16  C   UNL     1      26.989   3.763  49.603  1.00  0.00     0.014 A 
ATOM     17  C   UNL     1      26.112   5.994  49.428  1.00  0.00     0.067 A 
ATOM     18  C   UNL     1      27.122   5.087  49.139  1.00  0.00     0.027 A 
ATOM     19  N   UNL     1      26.512   7.172  48.860  1.00  0.00    -0.277 N 
ATOM     20  C   UNL     1      28.085   5.834  48.391  1.00  0.00     0.093 A 
ATOM     21  N   UNL     1      27.692   7.105  48.227  1.00  0.00    -0.175 NA
ATOM     22  H   UNL     1      26.020   8.059  48.865  1.00  0.00     0.190 HD
BRANCH  20  23
ATOM     23  C   UNL     1      29.313   5.299  47.872  1.00  0.00     0.033 C 
ATOM     24  C   UNL     1      30.514   5.891  47.986  1.00  0.00     0.030 C 
BRANCH  24  25
ATOM     25  C   UNL     1      31.779   5.364  47.467  1.00  0.00     0.063 A 
ATOM     26  C   UNL     1      32.107   4.011  47.490  1.00  0.00     0.028 A 
ATOM     27  N   UNL     1      32.587   6.294  46.907  1.00  0.00    -0.257 NA
ATOM     28  C   UNL     1      33.318   3.600  46.935  1.00  0.00     0.004 A 
ATOM     29  C   UNL     1      33.757   5.869  46.378  1.00  0.00     0.111 A 
ATOM     30  C   UNL     1      34.163   4.546  46.371  1.00  0.00     0.020 A 
ENDBRANCH  24  25
ENDBRANCH  20  23
ENDBRANCH   1  13
TORSDOF 5
ENDMDL
MODEL 15
REMARK VINA RESULT:    -7.692      3.818      9.386
REMARK INTER + INTRA:         -10.957
REMARK INTER:                 -10.529
REMARK INTRA:                  -0.428
REMARK UNBOUND:                -1.017
REMARK SMILES CNC(=O)c1ccccc1Sc1ccc2c(/C=C/c3ccccn3)n[nH]c2c1
REMARK SMILES IDX 11 1 10 2 5 3 6 4 7 5 9 6 8 7 3 8 2 9 4 10 1 11 12 13 13 14
REMARK SMILES IDX 28 15 14 16 27 17 15 18 26 19 16 20 25 21 17 23 18 24 19 25
REMARK SMILES IDX 20 26 24 27 21 28 23 29 22 30
REMARK H PARENT 2 12 26 22
ROOT
ATOM      1  S   UNL     1      32.567   7.714  46.382  1.00  0.00    -0.089 SA
ENDROOT
BRANCH   1   2
ATOM      2  C   UNL     1      33.533   6.381  47.091  1.00  0.00     0.025 A 
ATOM      3  C   UNL     1      34.034   5.294  46.354  1.00  0.00     0.053 A 
ATOM      4  C   UNL     1      34.836   4.327  46.982  1.00  0.00     0.015 A 
ATOM      5  C   UNL     1      35.117   4.418  48.345  1.00  0.00     0.001 A 
ATOM      6  C   UNL     1      33.821   6.454  48.463  1.00  0.00     0.016 A 
ATOM      7  C   UNL     1      34.604   5.480  49.086  1.00  0.00     0.001 A 
BRANCH   3   8
ATOM      8  C   UNL     1      33.798   5.099  44.902  1.00  0.00     0.252 C 
ATOM      9  N   UNL     1      34.714   5.677  44.053  1.00  0.00    -0.355 N 
ATOM     10  O   UNL     1      32.812   4.474  44.528  1.00  0.00    -0.269 OA
ATOM     11  C   UNL     1      34.651   5.468  42.630  1.00  0.00     0.143 C 
ATOM     12  H   UNL     1      35.571   6.049  44.446  1.00  0.00     0.163 HD
ENDBRANCH   3   8
ENDBRANCH   1   2
BRANCH   1  13
ATOM     13  C   UNL     1      30.938   7.288  46.986  1.00  0.00     0.014 A 
ATOM     14  C   UNL     1      30.791   6.180  47.827  1.00  0.00     0.016 A 
ATOM     15  C   UNL     1      29.819   8.042  46.605  1.00  0.00     0.043 A 
ATOM     16  C   UNL     1      29.532   5.808  48.322  1.00  0.00     0.014 A 
ATOM     17  C   UNL     1      28.576   7.657  47.119  1.00  0.00     0.067 A 
ATOM     18  C   UNL     1      28.401   6.568  47.963  1.00  0.00     0.027 A 
ATOM     19  N   UNL     1      27.327   8.188  46.952  1.00  0.00    -0.277 N 
ATOM     20  C   UNL     1      26.998   6.538  48.239  1.00  0.00     0.093 A 
ATOM     21  N   UNL     1      26.359   7.539  47.617  1.00  0.00    -0.175 NA
ATOM     22  H   UNL     1      27.069   8.998  46.399  1.00  0.00     0.190 HD
BRANCH  20  23
ATOM     23  C   UNL     1      26.350   5.572  49.081  1.00  0.00     0.033 C 
ATOM     24  C   UNL     1      26.832   4.346  49.351  1.00  0.00     0.030 C 
BRANCH  24  25
ATOM     25  C   UNL     1      26.190   3.346  50.208  1.00  0.00     0.063 A 
ATOM     26  C   UNL     1      24.813   3.143  50.243  1.00  0.00     0.028 A 
ATOM     27  N   UNL     1      27.050   2.587  50.927  1.00  0.00    -0.257 NA
ATOM     28  C   UNL     1      24.299   2.139  51.062  1.00  0.00     0.004 A 
ATOM     29  C   UNL     1      26.525   1.622  51.714  1.00  0.00     0.111 A 
ATOM     30  C   UNL     1      25.170   1.364  51.816  1.00  0.00     0.020 A 
ENDBRANCH  24  25
ENDBRANCH  20  23
ENDBRANCH   1  13
TORSDOF 5
ENDMDL
MODEL 16
REMARK VINA RESULT:    -7.672      3.821      5.204
REMARK INTER + INTRA:         -10.931
REMARK INTER:                 -10.038
REMARK INTRA:                  -0.894
REMARK UNBOUND:                -1.017
REMARK SMILES CNC(=O)c1ccccc1Sc1ccc2c(/C=C/c3ccccn3)n[nH]c2c1
REMARK SMILES IDX 11 1 10 2 5 3 6 4 7 5 9 6 8 7 3 8 2 9 4 10 1 11 12 13 13 14
REMARK SMILES IDX 28 15 14 16 27 17 15 18 26 19 16 20 25 21 17 23 18 24 19 25
REMARK SMILES IDX 20 26 24 27 21 28 23 29 22 30
REMARK H PARENT 2 12 26 22
ROOT
ATOM      1  S   UNL     1      22.830   4.332  51.896  1.00  0.00    -0.089 SA
ENDROOT
BRANCH   1   2
ATOM      2  C   UNL     1      23.698   2.884  52.495  1.00  0.00     0.025 A 
ATOM      3  C   UNL     1      23.370   1.564  52.139  1.00  0.00     0.053 A 
ATOM      4  C   UNL     1      24.147   0.493  52.609  1.00  0.00     0.015 A 
ATOM      5  C   UNL     1      25.230   0.723  53.456  1.00  0.00     0.001 A 
ATOM      6  C   UNL     1      24.789   3.097  53.353  1.00  0.00     0.016 A 
ATOM      7  C   UNL     1      25.547   2.026  53.832  1.00  0.00     0.001 A 
BRANCH   3   8
ATOM      8  C   UNL     1      22.240   1.206  51.246  1.00  0.00     0.252 C 
ATOM      9  N   UNL     1      21.092   0.765  51.863  1.00  0.00    -0.355 N 
ATOM     10  O   UNL     1      22.379   1.290  50.030  1.00  0.00    -0.269 OA
ATOM     11  C   UNL     1      19.896   0.490  51.110  1.00  0.00     0.143 C 
ATOM     12  H   UNL     1      21.013   0.864  52.869  1.00  0.00     0.163 HD
ENDBRANCH   3   8
ENDBRANCH   1   2
BRANCH   1  13
ATOM     13  C   UNL     1      24.140   5.140  50.985  1.00  0.00     0.014 A 
ATOM     14  C   UNL     1      24.223   6.537  51.005  1.00  0.00     0.016 A 
ATOM     15  C   UNL     1      25.059   4.386  50.242  1.00  0.00     0.043 A 
ATOM     16  C   UNL     1      25.233   7.212  50.303  1.00  0.00     0.014 A 
ATOM     17  C   UNL     1      26.062   5.082  49.558  1.00  0.00     0.067 A 
ATOM     18  C   UNL     1      26.176   6.466  49.568  1.00  0.00     0.027 A 
ATOM     19  N   UNL     1      27.094   4.641  48.778  1.00  0.00    -0.277 N 
ATOM     20  C   UNL     1      27.317   6.748  48.754  1.00  0.00     0.093 A 
ATOM     21  N   UNL     1      27.868   5.619  48.284  1.00  0.00    -0.175 NA
ATOM     22  H   UNL     1      27.329   3.682  48.548  1.00  0.00     0.190 HD
BRANCH  20  23
ATOM     23  C   UNL     1      27.821   8.063  48.477  1.00  0.00     0.033 C 
ATOM     24  C   UNL     1      28.356   8.887  49.395  1.00  0.00     0.030 C 
BRANCH  24  25
ATOM     25  C   UNL     1      28.879  10.231  49.136  1.00  0.00     0.063 A 
ATOM     26  C   UNL     1      28.063  11.331  48.885  1.00  0.00     0.028 A 
ATOM     27  N   UNL     1      30.226  10.334  49.216  1.00  0.00    -0.257 NA
ATOM     28  C   UNL     1      28.653  12.579  48.690  1.00  0.00     0.004 A 
ATOM     29  C   UNL     1      30.772  11.555  49.020  1.00  0.00     0.111 A 
ATOM     30  C   UNL     1      30.035  12.695  48.754  1.00  0.00     0.020 A 
ENDBRANCH  24  25
ENDBRANCH  20  23
ENDBRANCH   1  13
TORSDOF 5
ENDMDL
MODEL 17
REMARK VINA RESULT:    -7.590      2.192      3.665
REMARK INTER + INTRA:         -10.826
REMARK INTER:                  -9.886
REMARK INTRA:                  -0.940
REMARK UNBOUND:                -1.017
REMARK SMILES CNC(=O)c1ccccc1Sc1ccc2c(/C=C/c3ccccn3)n[nH]c2c1
REMARK SMILES IDX 11 1 10 2 5 3 6 4 7 5 9 6 8 7 3 8 2 9 4 10 1 11 12 13 13 14
REMARK SMILES IDX 28 15 14 16 27 17 15 18 26 19 16 20 25 21 17 23 18 24 19 25
REMARK SMILES IDX 20 26 24 27 21 28 23 29 22 30
REMARK H PARENT 2 12 26 22
ROOT
ATOM      1  S   UNL     1      22.713   4.419  51.886  1.00  0.00    -0.089 SA
ENDROOT
BRANCH   1   2
ATOM      2  C   UNL     1      23.558   2.941  52.446  1.00  0.00     0.025 A 
ATOM      3  C   UNL     1      23.210   1.637  52.050  1.00  0.00     0.053 A 
ATOM      4  C   UNL     1      23.970   0.541  52.490  1.00  0.00     0.015 A 
ATOM      5  C   UNL     1      25.054   0.730  53.346  1.00  0.00     0.001 A 
ATOM      6  C   UNL     1      24.650   3.112  53.312  1.00  0.00     0.016 A 
ATOM      7  C   UNL     1      25.390   2.016  53.761  1.00  0.00     0.001 A 
BRANCH   3   8
ATOM      8  C   UNL     1      22.079   1.322  51.144  1.00  0.00     0.252 C 
ATOM      9  N   UNL     1      22.318   1.469  49.796  1.00  0.00    -0.355 N 
ATOM     10  O   UNL     1      21.001   0.980  51.617  1.00  0.00    -0.269 OA
ATOM     11  C   UNL     1      21.334   1.093  48.816  1.00  0.00     0.143 C 
ATOM     12  H   UNL     1      23.272   1.614  49.487  1.00  0.00     0.163 HD
ENDBRANCH   3   8
ENDBRANCH   1   2
BRANCH   1  13
ATOM     13  C   UNL     1      24.031   5.222  50.983  1.00  0.00     0.014 A 
ATOM     14  C   UNL     1      24.744   4.493  50.025  1.00  0.00     0.016 A 
ATOM     15  C   UNL     1      24.360   6.559  51.246  1.00  0.00     0.043 A 
ATOM     16  C   UNL     1      25.787   5.083  49.295  1.00  0.00     0.014 A 
ATOM     17  C   UNL     1      25.398   7.127  50.498  1.00  0.00     0.067 A 
ATOM     18  C   UNL     1      26.116   6.431  49.535  1.00  0.00     0.027 A 
ATOM     19  N   UNL     1      25.932   8.385  50.508  1.00  0.00    -0.277 N 
ATOM     20  C   UNL     1      27.064   7.375  49.029  1.00  0.00     0.093 A 
ATOM     21  N   UNL     1      26.933   8.566  49.632  1.00  0.00    -0.175 NA
ATOM     22  H   UNL     1      25.655   9.170  51.086  1.00  0.00     0.190 HD
BRANCH  20  23
ATOM     23  C   UNL     1      28.028   7.098  48.002  1.00  0.00     0.033 C 
ATOM     24  C   UNL     1      29.218   7.713  47.883  1.00  0.00     0.030 C 
BRANCH  24  25
ATOM     25  C   UNL     1      30.218   7.445  46.846  1.00  0.00     0.063 A 
ATOM     26  C   UNL     1      30.225   8.085  45.609  1.00  0.00     0.028 A 
ATOM     27  N   UNL     1      31.177   6.561  47.207  1.00  0.00    -0.257 NA
ATOM     28  C   UNL     1      31.242   7.792  44.703  1.00  0.00     0.004 A 
ATOM     29  C   UNL     1      32.151   6.293  46.308  1.00  0.00     0.111 A 
ATOM     30  C   UNL     1      32.224   6.875  45.055  1.00  0.00     0.020 A 
ENDBRANCH  24  25
ENDBRANCH  20  23
ENDBRANCH   1  13
TORSDOF 5
ENDMDL
MODEL 18
REMARK VINA RESULT:    -7.563      4.507      5.844
REMARK INTER + INTRA:         -10.791
REMARK INTER:                 -10.579
REMARK INTRA:                  -0.213
REMARK UNBOUND:                -1.017
REMARK SMILES CNC(=O)c1ccccc1Sc1ccc2c(/C=C/c3ccccn3)n[nH]c2c1
REMARK SMILES IDX 11 1 10 2 5 3 6 4 7 5 9 6 8 7 3 8 2 9 4 10 1 11 12 13 13 14
REMARK SMILES IDX 28 15 14 16 27 17 15 18 26 19 16 20 25 21 17 23 18 24 19 25
REMARK SMILES IDX 20 26 24 27 21 28 23 29 22 30
REMARK H PARENT 2 12 26 22
ROOT
ATOM      1  S   UNL     1      22.689   1.877  52.357  1.00  0.00    -0.089 SA
ENDROOT
BRANCH   1   2
ATOM      2  C   UNL     1      24.234   0.984  52.526  1.00  0.00     0.025 A 
ATOM      3  C   UNL     1      24.397  -0.165  53.321  1.00  0.00     0.053 A 
ATOM      4  C   UNL     1      25.630  -0.836  53.343  1.00  0.00     0.015 A 
ATOM      5  C   UNL     1      26.711  -0.356  52.604  1.00  0.00     0.001 A 
ATOM      6  C   UNL     1      25.334   1.456  51.792  1.00  0.00     0.016 A 
ATOM      7  C   UNL     1      26.563   0.795  51.833  1.00  0.00     0.001 A 
BRANCH   3   8
ATOM      8  C   UNL     1      23.317  -0.760  54.145  1.00  0.00     0.252 C 
ATOM      9  N   UNL     1      22.132  -1.026  53.496  1.00  0.00    -0.355 N 
ATOM     10  O   UNL     1      23.507  -0.962  55.339  1.00  0.00    -0.269 OA
ATOM     11  C   UNL     1      21.049  -1.701  54.162  1.00  0.00     0.143 C 
ATOM     12  H   UNL     1      22.110  -0.965  52.484  1.00  0.00     0.163 HD
ENDBRANCH   3   8
ENDBRANCH   1   2
BRANCH   1  13
ATOM     13  C   UNL     1      23.250   3.330  51.479  1.00  0.00     0.014 A 
ATOM     14  C   UNL     1      23.405   3.270  50.090  1.00  0.00     0.016 A 
ATOM     15  C   UNL     1      23.551   4.509  52.176  1.00  0.00     0.043 A 
ATOM     16  C   UNL     1      23.845   4.385  49.362  1.00  0.00     0.014 A 
ATOM     17  C   UNL     1      23.979   5.610  51.426  1.00  0.00     0.067 A 
ATOM     18  C   UNL     1      24.133   5.583  50.046  1.00  0.00     0.027 A 
ATOM     19  N   UNL     1      24.326   6.878  51.802  1.00  0.00    -0.277 N 
ATOM     20  C   UNL     1      24.581   6.896  49.699  1.00  0.00     0.093 A 
ATOM     21  N   UNL     1      24.688   7.675  50.785  1.00  0.00    -0.175 NA
ATOM     22  H   UNL     1      24.331   7.264  52.739  1.00  0.00     0.190 HD
BRANCH  20  23
ATOM     23  C   UNL     1      24.872   7.336  48.364  1.00  0.00     0.033 C 
ATOM     24  C   UNL     1      26.094   7.677  47.920  1.00  0.00     0.030 C 
BRANCH  24  25
ATOM     25  C   UNL     1      26.416   8.126  46.562  1.00  0.00     0.063 A 
ATOM     26  C   UNL     1      27.717   8.356  46.123  1.00  0.00     0.028 A 
ATOM     27  N   UNL     1      25.345   8.245  45.743  1.00  0.00    -0.257 NA
ATOM     28  C   UNL     1      27.925   8.743  44.801  1.00  0.00     0.004 A 
ATOM     29  C   UNL     1      25.575   8.624  44.466  1.00  0.00     0.111 A 
ATOM     30  C   UNL     1      26.834   8.883  43.953  1.00  0.00     0.020 A 
ENDBRANCH  24  25
ENDBRANCH  20  23
ENDBRANCH   1  13
TORSDOF 5
ENDMDL
MODEL 19
REMARK VINA RESULT:    -7.499      2.601      3.640
REMARK INTER + INTRA:         -10.708
REMARK INTER:                 -10.062
REMARK INTRA:                  -0.646
REMARK UNBOUND:                -1.017
REMARK SMILES CNC(=O)c1ccccc1Sc1ccc2c(/C=C/c3ccccn3)n[nH]c2c1
REMARK SMILES IDX 11 1 10 2 5 3 6 4 7 5 9 6 8 7 3 8 2 9 4 10 1 11 12 13 13 14
REMARK SMILES IDX 28 15 14 16 27 17 15 18 26 19 16 20 25 21 17 23 18 24 19 25
REMARK SMILES IDX 20 26 24 27 21 28 23 29 22 30
REMARK H PARENT 2 12 26 22
ROOT
ATOM      1  S   UNL     1      24.256   1.494  52.144  1.00  0.00    -0.089 SA
ENDROOT
BRANCH   1   2
ATOM      2  C   UNL     1      22.668   1.191  51.370  1.00  0.00     0.025 A 
ATOM      3  C   UNL     1      21.569   0.611  52.028  1.00  0.00     0.053 A 
ATOM      4  C   UNL     1      20.342   0.470  51.360  1.00  0.00     0.015 A 
ATOM      5  C   UNL     1      20.210   0.873  50.032  1.00  0.00     0.001 A 
ATOM      6  C   UNL     1      22.518   1.586  50.031  1.00  0.00     0.016 A 
ATOM      7  C   UNL     1      21.301   1.426  49.366  1.00  0.00     0.001 A 
BRANCH   3   8
ATOM      8  C   UNL     1      21.599   0.148  53.437  1.00  0.00     0.252 C 
ATOM      9  N   UNL     1      22.430  -0.914  53.712  1.00  0.00    -0.355 N 
ATOM     10  O   UNL     1      20.886   0.696  54.271  1.00  0.00    -0.269 OA
ATOM     11  C   UNL     1      22.626  -1.383  55.059  1.00  0.00     0.143 C 
ATOM     12  H   UNL     1      23.089  -1.210  53.000  1.00  0.00     0.163 HD
ENDBRANCH   3   8
ENDBRANCH   1   2
BRANCH   1  13
ATOM     13  C   UNL     1      24.813   2.905  51.196  1.00  0.00     0.014 A 
ATOM     14  C   UNL     1      25.877   2.747  50.302  1.00  0.00     0.016 A 
ATOM     15  C   UNL     1      24.206   4.157  51.362  1.00  0.00     0.043 A 
ATOM     16  C   UNL     1      26.348   3.827  49.540  1.00  0.00     0.014 A 
ATOM     17  C   UNL     1      24.687   5.216  50.584  1.00  0.00     0.067 A 
ATOM     18  C   UNL     1      25.735   5.088  49.682  1.00  0.00     0.027 A 
ATOM     19  N   UNL     1      24.302   6.525  50.506  1.00  0.00    -0.277 N 
ATOM     20  C   UNL     1      25.895   6.391  49.116  1.00  0.00     0.093 A 
ATOM     21  N   UNL     1      25.007   7.255  49.628  1.00  0.00    -0.175 NA
ATOM     22  H   UNL     1      23.559   6.982  51.022  1.00  0.00     0.190 HD
BRANCH  20  23
ATOM     23  C   UNL     1      26.871   6.738  48.122  1.00  0.00     0.033 C 
ATOM     24  C   UNL     1      28.199   6.770  48.331  1.00  0.00     0.030 C 
BRANCH  24  25
ATOM     25  C   UNL     1      29.213   7.118  47.332  1.00  0.00     0.063 A 
ATOM     26  C   UNL     1      28.952   7.933  46.233  1.00  0.00     0.028 A 
ATOM     27  N   UNL     1      30.448   6.629  47.592  1.00  0.00    -0.257 NA
ATOM     28  C   UNL     1      29.993   8.240  45.358  1.00  0.00     0.004 A 
ATOM     29  C   UNL     1      31.438   6.941  46.726  1.00  0.00     0.111 A 
ATOM     30  C   UNL     1      31.262   7.733  45.605  1.00  0.00     0.020 A 
ENDBRANCH  24  25
ENDBRANCH  20  23
ENDBRANCH   1  13
TORSDOF 5
ENDMDL
MODEL 20
REMARK VINA RESULT:    -7.482      3.303      4.665
REMARK INTER + INTRA:         -10.687
REMARK INTER:                 -10.286
REMARK INTRA:                  -0.401
REMARK UNBOUND:                -1.017
REMARK SMILES CNC(=O)c1ccccc1Sc1ccc2c(/C=C/c3ccccn3)n[nH]c2c1
REMARK SMILES IDX 11 1 10 2 5 3 6 4 7 5 9 6 8 7 3 8 2 9 4 10 1 11 12 13 13 14
REMARK SMILES IDX 28 15 14 16 27 17 15 18 26 19 16 20 25 21 17 23 18 24 19 25
REMARK SMILES IDX 20 26 24 27 21 28 23 29 22 30
REMARK H PARENT 2 12 26 22
ROOT
ATOM      1  S   UNL     1      22.699   2.644  52.105  1.00  0.00    -0.089 SA
ENDROOT
BRANCH   1   2
ATOM      2  C   UNL     1      24.016   1.759  52.938  1.00  0.00     0.025 A 
ATOM      3  C   UNL     1      23.911   0.432  53.391  1.00  0.00     0.053 A 
ATOM      4  C   UNL     1      25.018  -0.202  53.978  1.00  0.00     0.015 A 
ATOM      5  C   UNL     1      26.220   0.485  54.145  1.00  0.00     0.001 A 
ATOM      6  C   UNL     1      25.233   2.437  53.119  1.00  0.00     0.016 A 
ATOM      7  C   UNL     1      26.324   1.807  53.720  1.00  0.00     0.001 A 
BRANCH   3   8
ATOM      8  C   UNL     1      22.682  -0.389  53.264  1.00  0.00     0.252 C 
ATOM      9  N   UNL     1      22.217  -0.972  54.421  1.00  0.00    -0.355 N 
ATOM     10  O   UNL     1      22.162  -0.534  52.163  1.00  0.00    -0.269 OA
ATOM     11  C   UNL     1      20.976  -1.702  54.444  1.00  0.00     0.143 C 
ATOM     12  H   UNL     1      22.620  -0.684  55.305  1.00  0.00     0.163 HD
ENDBRANCH   3   8
ENDBRANCH   1   2
BRANCH   1  13
ATOM     13  C   UNL     1      23.634   3.946  51.313  1.00  0.00     0.014 A 
ATOM     14  C   UNL     1      24.498   3.621  50.261  1.00  0.00     0.016 A 
ATOM     15  C   UNL     1      23.521   5.271  51.753  1.00  0.00     0.043 A 
ATOM     16  C   UNL     1      25.253   4.610  49.612  1.00  0.00     0.014 A 
ATOM     17  C   UNL     1      24.277   6.241  51.084  1.00  0.00     0.067 A 
ATOM     18  C   UNL     1      25.134   5.950  50.030  1.00  0.00     0.027 A 
ATOM     19  N   UNL     1      24.370   7.593  51.261  1.00  0.00    -0.277 N 
ATOM     20  C   UNL     1      25.694   7.210  49.653  1.00  0.00     0.093 A 
ATOM     21  N   UNL     1      25.211   8.203  50.413  1.00  0.00    -0.175 NA
ATOM     22  H   UNL     1      23.880   8.162  51.943  1.00  0.00     0.190 HD
BRANCH  20  23
ATOM     23  C   UNL     1      26.643   7.400  48.592  1.00  0.00     0.033 C 
ATOM     24  C   UNL     1      27.920   7.783  48.767  1.00  0.00     0.030 C 
BRANCH  24  25
ATOM     25  C   UNL     1      28.906   7.980  47.702  1.00  0.00     0.063 A 
ATOM     26  C   UNL     1      28.579   7.970  46.348  1.00  0.00     0.028 A 
ATOM     27  N   UNL     1      30.162   8.232  48.139  1.00  0.00    -0.257 NA
ATOM     28  C   UNL     1      29.581   8.207  45.409  1.00  0.00     0.004 A 
ATOM     29  C   UNL     1      31.115   8.456  47.208  1.00  0.00     0.111 A 
ATOM     30  C   UNL     1      30.877   8.452  45.845  1.00  0.00     0.020 A 
ENDBRANCH  24  25
ENDBRANCH  20  23
ENDBRANCH   1  13
TORSDOF 5
ENDMDL
