MODEL 1
REMARK VINA RESULT:    -7.904      0.000      0.000
REMARK INTER + INTRA:         -13.307
REMARK INTER:                 -11.600
REMARK INTRA:                  -1.706
REMARK UNBOUND:                -1.706
REMARK SMILES COc1cc2c(Oc3ccc4[nH]c(C)cc4c3F)ncnc2cc1OCCCN1CCCC1
REMARK SMILES IDX 25 1 24 2 3 3 4 4 5 5 23 6 6 7 22 8 19 9 21 10 20 11 2 12
REMARK SMILES IDX 1 13 7 14 8 15 9 16 17 17 10 18 16 19 11 20 15 21 12 22
REMARK SMILES IDX 13 23 18 24 14 26 26 27 27 28 28 29 29 30 30 31 33 32 31 33
REMARK SMILES IDX 32 34
REMARK H PARENT 12 25
ROOT
ATOM      1  O   UNL     1      22.831   7.086  47.621  1.00  0.00    -0.490 OA
ENDROOT
BRANCH   1   2
ATOM      2  C   UNL     1      22.681   5.911  48.314  1.00  0.00     0.163 A 
ATOM      3  C   UNL     1      22.827   5.993  49.708  1.00  0.00     0.161 A 
ATOM      4  C   UNL     1      22.678   4.836  50.473  1.00  0.00     0.066 A 
ATOM      5  C   UNL     1      22.376   3.599  49.853  1.00  0.00     0.067 A 
ATOM      6  C   UNL     1      22.366   4.684  47.721  1.00  0.00     0.079 A 
ATOM      7  C   UNL     1      22.210   2.384  50.523  1.00  0.00     0.230 A 
ATOM      8  C   UNL     1      22.215   3.524  48.468  1.00  0.00     0.081 A 
ATOM      9  N   UNL     1      21.942   1.210  49.917  1.00  0.00    -0.201 NA
ATOM     10  N   UNL     1      21.926   2.377  47.837  1.00  0.00    -0.236 NA
ATOM     11  C   UNL     1      21.800   1.276  48.593  1.00  0.00     0.226 A 
BRANCH   3  12
ATOM     12  O   UNL     1      23.130   7.231  50.215  1.00  0.00    -0.493 OA
ATOM     13  C   UNL     1      23.962   7.288  51.365  1.00  0.00     0.278 C 
ENDBRANCH   3  12
BRANCH   7  14
ATOM     14  O   UNL     1      22.409   2.383  51.902  1.00  0.00    -0.435 OA
BRANCH  14  15
ATOM     15  C   UNL     1      23.351   1.498  52.370  1.00  0.00     0.165 A 
ATOM     16  C   UNL     1      22.907   0.393  53.094  1.00  0.00     0.052 A 
ATOM     17  C   UNL     1      24.709   1.655  52.063  1.00  0.00     0.175 A 
ATOM     18  C   UNL     1      23.812  -0.567  53.563  1.00  0.00     0.031 A 
ATOM     19  C   UNL     1      25.638   0.704  52.523  1.00  0.00     0.039 A 
ATOM     20  C   UNL     1      25.170  -0.383  53.263  1.00  0.00     0.049 A 
ATOM     21  C   UNL     1      27.048   0.556  52.410  1.00  0.00     0.034 A 
ATOM     22  N   UNL     1      26.264  -1.152  53.588  1.00  0.00    -0.359 N 
ATOM     23  C   UNL     1      27.412  -0.597  53.075  1.00  0.00     0.013 A 
ATOM     24  F   UNL     1      25.118   2.693  51.318  1.00  0.00    -0.202 F 
ATOM     25  H   UNL     1      26.224  -2.004  54.130  1.00  0.00     0.166 HD
ATOM     26  C   UNL     1      28.741  -1.225  53.274  1.00  0.00     0.064 C 
ENDBRANCH  14  15
ENDBRANCH   7  14
ENDBRANCH   1   2
BRANCH   1  27
ATOM     27  C   UNL     1      23.982   7.262  46.797  1.00  0.00     0.231 C 
BRANCH  27  28
ATOM     28  C   UNL     1      24.914   8.363  47.295  1.00  0.00     0.057 C 
BRANCH  28  29
ATOM     29  C   UNL     1      25.944   7.956  48.358  1.00  0.00     0.088 C 
BRANCH  29  30
ATOM     30  N   UNL     1      26.664   6.712  48.059  1.00  0.00    -0.303 NA
ATOM     31  C   UNL     1      28.125   6.855  48.141  1.00  0.00     0.084 C 
ATOM     32  C   UNL     1      26.357   5.673  49.051  1.00  0.00     0.084 C 
ATOM     33  C   UNL     1      28.625   5.423  48.293  1.00  0.00     0.017 C 
ATOM     34  C   UNL     1      27.429   4.629  48.797  1.00  0.00     0.017 C 
ENDBRANCH  29  30
ENDBRANCH  28  29
ENDBRANCH  27  28
ENDBRANCH   1  27
TORSDOF 8
ENDMDL
MODEL 2
REMARK VINA RESULT:    -7.864      3.710      5.772
REMARK INTER + INTRA:         -13.249
REMARK INTER:                 -11.921
REMARK INTRA:                  -1.327
REMARK UNBOUND:                -1.706
REMARK SMILES COc1cc2c(Oc3ccc4[nH]c(C)cc4c3F)ncnc2cc1OCCCN1CCCC1
REMARK SMILES IDX 25 1 24 2 3 3 4 4 5 5 23 6 6 7 22 8 19 9 21 10 20 11 2 12
REMARK SMILES IDX 1 13 7 14 8 15 9 16 17 17 10 18 16 19 11 20 15 21 12 22
REMARK SMILES IDX 13 23 18 24 14 26 26 27 27 28 28 29 29 30 30 31 33 32 31 33
REMARK SMILES IDX 32 34
REMARK H PARENT 12 25
ROOT
ATOM      1  O   UNL     1      29.752   8.591  48.132  1.00  0.00    -0.490 OA
ENDROOT
BRANCH   1   2
ATOM      2  C   UNL     1      28.649   7.857  48.491  1.00  0.00     0.163 A 
ATOM      3  C   UNL     1      28.628   6.522  48.055  1.00  0.00     0.161 A 
ATOM      4  C   UNL     1      27.540   5.718  48.393  1.00  0.00     0.066 A 
ATOM      5  C   UNL     1      26.476   6.238  49.170  1.00  0.00     0.067 A 
ATOM      6  C   UNL     1      27.598   8.348  49.271  1.00  0.00     0.079 A 
ATOM      7  C   UNL     1      25.341   5.522  49.559  1.00  0.00     0.230 A 
ATOM      8  C   UNL     1      26.507   7.561  49.615  1.00  0.00     0.081 A 
ATOM      9  N   UNL     1      24.326   6.037  50.283  1.00  0.00    -0.201 NA
ATOM     10  N   UNL     1      25.526   8.096  50.354  1.00  0.00    -0.236 NA
ATOM     11  C   UNL     1      24.485   7.307  50.656  1.00  0.00     0.226 A 
BRANCH   3  12
ATOM     12  O   UNL     1      29.696   6.113  47.299  1.00  0.00    -0.493 OA
ATOM     13  C   UNL     1      30.487   5.043  47.798  1.00  0.00     0.278 C 
ENDBRANCH   3  12
BRANCH   7  14
ATOM     14  O   UNL     1      25.225   4.211  49.103  1.00  0.00    -0.435 OA
BRANCH  14  15
ATOM     15  C   UNL     1      25.227   3.236  50.072  1.00  0.00     0.165 A 
ATOM     16  C   UNL     1      26.452   2.867  50.625  1.00  0.00     0.052 A 
ATOM     17  C   UNL     1      24.030   2.686  50.550  1.00  0.00     0.175 A 
ATOM     18  C   UNL     1      26.517   1.910  51.645  1.00  0.00     0.031 A 
ATOM     19  C   UNL     1      24.070   1.723  51.574  1.00  0.00     0.039 A 
ATOM     20  C   UNL     1      25.311   1.355  52.097  1.00  0.00     0.049 A 
ATOM     21  C   UNL     1      23.084   0.972  52.272  1.00  0.00     0.034 A 
ATOM     22  N   UNL     1      25.076   0.411  53.070  1.00  0.00    -0.359 N 
ATOM     23  C   UNL     1      23.728   0.169  53.190  1.00  0.00     0.013 A 
ATOM     24  F   UNL     1      22.853   3.090  50.048  1.00  0.00    -0.202 F 
ATOM     25  H   UNL     1      25.797  -0.039  53.616  1.00  0.00     0.166 HD
ATOM     26  C   UNL     1      23.194  -0.806  54.172  1.00  0.00     0.064 C 
ENDBRANCH  14  15
ENDBRANCH   7  14
ENDBRANCH   1   2
BRANCH   1  27
ATOM     27  C   UNL     1      30.653   9.029  49.148  1.00  0.00     0.231 C 
BRANCH  27  28
ATOM     28  C   UNL     1      31.972   8.263  49.152  1.00  0.00     0.057 C 
BRANCH  28  29
ATOM     29  C   UNL     1      32.633   8.033  47.786  1.00  0.00     0.088 C 
BRANCH  29  30
ATOM     30  N   UNL     1      33.827   7.179  47.827  1.00  0.00    -0.303 NA
ATOM     31  C   UNL     1      35.018   7.874  48.337  1.00  0.00     0.084 C 
ATOM     32  C   UNL     1      33.644   6.063  48.764  1.00  0.00     0.084 C 
ATOM     33  C   UNL     1      35.951   6.744  48.755  1.00  0.00     0.017 C 
ATOM     34  C   UNL     1      35.054   5.528  48.939  1.00  0.00     0.017 C 
ENDBRANCH  29  30
ENDBRANCH  28  29
ENDBRANCH  27  28
ENDBRANCH   1  27
TORSDOF 8
ENDMDL
MODEL 3
REMARK VINA RESULT:    -7.681      3.359      5.227
REMARK INTER + INTRA:         -12.980
REMARK INTER:                 -11.714
REMARK INTRA:                  -1.266
REMARK UNBOUND:                -1.706
REMARK SMILES COc1cc2c(Oc3ccc4[nH]c(C)cc4c3F)ncnc2cc1OCCCN1CCCC1
REMARK SMILES IDX 25 1 24 2 3 3 4 4 5 5 23 6 6 7 22 8 19 9 21 10 20 11 2 12
REMARK SMILES IDX 1 13 7 14 8 15 9 16 17 17 10 18 16 19 11 20 15 21 12 22
REMARK SMILES IDX 13 23 18 24 14 26 26 27 27 28 28 29 29 30 30 31 33 32 31 33
REMARK SMILES IDX 32 34
REMARK H PARENT 12 25
ROOT
ATOM      1  O   UNL     1      28.796   8.800  48.305  1.00  0.00    -0.490 OA
ENDROOT
BRANCH   1   2
ATOM      2  C   UNL     1      27.847   7.901  48.721  1.00  0.00     0.163 A 
ATOM      3  C   UNL     1      28.044   6.568  48.326  1.00  0.00     0.161 A 
ATOM      4  C   UNL     1      27.121   5.601  48.722  1.00  0.00     0.066 A 
ATOM      5  C   UNL     1      26.004   5.957  49.518  1.00  0.00     0.067 A 
ATOM      6  C   UNL     1      26.747   8.231  49.520  1.00  0.00     0.079 A 
ATOM      7  C   UNL     1      25.021   5.072  49.965  1.00  0.00     0.230 A 
ATOM      8  C   UNL     1      25.818   7.281  49.922  1.00  0.00     0.081 A 
ATOM      9  N   UNL     1      23.952   5.429  50.705  1.00  0.00    -0.201 NA
ATOM     10  N   UNL     1      24.780   7.665  50.676  1.00  0.00    -0.236 NA
ATOM     11  C   UNL     1      23.899   6.720  51.035  1.00  0.00     0.226 A 
BRANCH   3  12
ATOM     12  O   UNL     1      29.147   6.321  47.548  1.00  0.00    -0.493 OA
ATOM     13  C   UNL     1      30.029   5.288  47.962  1.00  0.00     0.278 C 
ENDBRANCH   3  12
BRANCH   7  14
ATOM     14  O   UNL     1      25.120   3.745  49.551  1.00  0.00    -0.435 OA
BRANCH  14  15
ATOM     15  C   UNL     1      25.068   2.800  50.550  1.00  0.00     0.165 A 
ATOM     16  C   UNL     1      26.247   2.507  51.233  1.00  0.00     0.052 A 
ATOM     17  C   UNL     1      23.856   2.208  50.925  1.00  0.00     0.175 A 
ATOM     18  C   UNL     1      26.253   1.585  52.287  1.00  0.00     0.031 A 
ATOM     19  C   UNL     1      23.836   1.279  51.981  1.00  0.00     0.039 A 
ATOM     20  C   UNL     1      25.033   0.987  52.636  1.00  0.00     0.049 A 
ATOM     21  C   UNL     1      22.819   0.504  52.604  1.00  0.00     0.034 A 
ATOM     22  N   UNL     1      24.744   0.062  53.613  1.00  0.00    -0.359 N 
ATOM     23  C   UNL     1      23.403  -0.240  53.608  1.00  0.00     0.013 A 
ATOM     24  F   UNL     1      22.718   2.541  50.296  1.00  0.00    -0.202 F 
ATOM     25  H   UNL     1      25.426  -0.337  54.242  1.00  0.00     0.166 HD
ATOM     26  C   UNL     1      22.817  -1.210  54.565  1.00  0.00     0.064 C 
ENDBRANCH  14  15
ENDBRANCH   7  14
ENDBRANCH   1   2
BRANCH   1  27
ATOM     27  C   UNL     1      29.231   9.815  49.208  1.00  0.00     0.231 C 
BRANCH  27  28
ATOM     28  C   UNL     1      30.731   9.775  49.481  1.00  0.00     0.057 C 
BRANCH  28  29
ATOM     29  C   UNL     1      31.400   8.395  49.416  1.00  0.00     0.088 C 
BRANCH  29  30
ATOM     30  N   UNL     1      32.261   8.194  48.243  1.00  0.00    -0.303 NA
ATOM     31  C   UNL     1      32.466   9.421  47.460  1.00  0.00     0.084 C 
ATOM     32  C   UNL     1      33.618   7.804  48.646  1.00  0.00     0.084 C 
ATOM     33  C   UNL     1      33.718   9.128  46.641  1.00  0.00     0.017 C 
ATOM     34  C   UNL     1      34.421   7.994  47.372  1.00  0.00     0.017 C 
ENDBRANCH  29  30
ENDBRANCH  28  29
ENDBRANCH  27  28
ENDBRANCH   1  27
TORSDOF 8
ENDMDL
MODEL 4
REMARK VINA RESULT:    -7.658      3.610      5.282
REMARK INTER + INTRA:         -12.946
REMARK INTER:                 -11.197
REMARK INTRA:                  -1.749
REMARK UNBOUND:                -1.706
REMARK SMILES COc1cc2c(Oc3ccc4[nH]c(C)cc4c3F)ncnc2cc1OCCCN1CCCC1
REMARK SMILES IDX 25 1 24 2 3 3 4 4 5 5 23 6 6 7 22 8 19 9 21 10 20 11 2 12
REMARK SMILES IDX 1 13 7 14 8 15 9 16 17 17 10 18 16 19 11 20 15 21 12 22
REMARK SMILES IDX 13 23 18 24 14 26 26 27 27 28 28 29 29 30 30 31 33 32 31 33
REMARK SMILES IDX 32 34
REMARK H PARENT 12 25
ROOT
ATOM      1  O   UNL     1      18.513   1.677  49.739  1.00  0.00    -0.490 OA
ENDROOT
BRANCH   1   2
ATOM      2  C   UNL     1      19.477   1.183  50.581  1.00  0.00     0.163 A 
ATOM      3  C   UNL     1      20.743   0.968  50.012  1.00  0.00     0.161 A 
ATOM      4  C   UNL     1      21.771   0.475  50.815  1.00  0.00     0.066 A 
ATOM      5  C   UNL     1      21.543   0.202  52.186  1.00  0.00     0.067 A 
ATOM      6  C   UNL     1      19.275   0.924  51.941  1.00  0.00     0.079 A 
ATOM      7  C   UNL     1      22.499  -0.295  53.076  1.00  0.00     0.230 A 
ATOM      8  C   UNL     1      20.288   0.432  52.753  1.00  0.00     0.081 A 
ATOM      9  N   UNL     1      22.262  -0.569  54.375  1.00  0.00    -0.201 NA
ATOM     10  N   UNL     1      20.026   0.192  54.045  1.00  0.00    -0.236 NA
ATOM     11  C   UNL     1      21.027  -0.293  54.795  1.00  0.00     0.226 A 
BRANCH   3  12
ATOM     12  O   UNL     1      20.864   1.250  48.675  1.00  0.00    -0.493 OA
ATOM     13  C   UNL     1      22.059   1.882  48.239  1.00  0.00     0.278 C 
ENDBRANCH   3  12
BRANCH   7  14
ATOM     14  O   UNL     1      23.758  -0.595  52.559  1.00  0.00    -0.435 OA
BRANCH  14  15
ATOM     15  C   UNL     1      24.770   0.266  52.911  1.00  0.00     0.165 A 
ATOM     16  C   UNL     1      24.482   1.629  52.956  1.00  0.00     0.052 A 
ATOM     17  C   UNL     1      26.030  -0.213  53.291  1.00  0.00     0.175 A 
ATOM     18  C   UNL     1      25.458   2.554  53.347  1.00  0.00     0.031 A 
ATOM     19  C   UNL     1      27.028   0.696  53.687  1.00  0.00     0.039 A 
ATOM     20  C   UNL     1      26.720   2.058  53.704  1.00  0.00     0.049 A 
ATOM     21  C   UNL     1      28.378   0.567  54.115  1.00  0.00     0.034 A 
ATOM     22  N   UNL     1      27.851   2.722  54.122  1.00  0.00    -0.359 N 
ATOM     23  C   UNL     1      28.866   1.831  54.378  1.00  0.00     0.013 A 
ATOM     24  F   UNL     1      26.278  -1.532  53.297  1.00  0.00    -0.202 F 
ATOM     25  H   UNL     1      27.921   3.725  54.223  1.00  0.00     0.166 HD
ATOM     26  C   UNL     1      30.200   2.279  54.847  1.00  0.00     0.064 C 
ENDBRANCH  14  15
ENDBRANCH   7  14
ENDBRANCH   1   2
BRANCH   1  27
ATOM     27  C   UNL     1      18.070   3.023  49.908  1.00  0.00     0.231 C 
BRANCH  27  28
ATOM     28  C   UNL     1      19.039   4.052  49.334  1.00  0.00     0.057 C 
BRANCH  28  29
ATOM     29  C   UNL     1      19.623   5.068  50.325  1.00  0.00     0.088 C 
BRANCH  29  30
ATOM     30  N   UNL     1      21.091   5.097  50.368  1.00  0.00    -0.303 NA
ATOM     31  C   UNL     1      21.634   6.431  50.658  1.00  0.00     0.084 C 
ATOM     32  C   UNL     1      21.602   4.264  51.465  1.00  0.00     0.084 C 
ATOM     33  C   UNL     1      23.054   6.153  51.137  1.00  0.00     0.017 C 
ATOM     34  C   UNL     1      23.053   4.695  51.574  1.00  0.00     0.017 C 
ENDBRANCH  29  30
ENDBRANCH  28  29
ENDBRANCH  27  28
ENDBRANCH   1  27
TORSDOF 8
ENDMDL
MODEL 5
REMARK VINA RESULT:    -7.604      2.352      7.718
REMARK INTER + INTRA:         -12.866
REMARK INTER:                 -11.747
REMARK INTRA:                  -1.119
REMARK UNBOUND:                -1.706
REMARK SMILES COc1cc2c(Oc3ccc4[nH]c(C)cc4c3F)ncnc2cc1OCCCN1CCCC1
REMARK SMILES IDX 25 1 24 2 3 3 4 4 5 5 23 6 6 7 22 8 19 9 21 10 20 11 2 12
REMARK SMILES IDX 1 13 7 14 8 15 9 16 17 17 10 18 16 19 11 20 15 21 12 22
REMARK SMILES IDX 13 23 18 24 14 26 26 27 27 28 28 29 29 30 30 31 33 32 31 33
REMARK SMILES IDX 32 34
REMARK H PARENT 12 25
ROOT
ATOM      1  O   UNL     1      23.835   2.004  53.245  1.00  0.00    -0.490 OA
ENDROOT
BRANCH   1   2
ATOM      2  C   UNL     1      23.725   3.005  52.313  1.00  0.00     0.163 A 
ATOM      3  C   UNL     1      24.668   2.987  51.273  1.00  0.00     0.161 A 
ATOM      4  C   UNL     1      24.606   3.972  50.287  1.00  0.00     0.066 A 
ATOM      5  C   UNL     1      23.602   4.970  50.330  1.00  0.00     0.067 A 
ATOM      6  C   UNL     1      22.730   3.989  52.330  1.00  0.00     0.079 A 
ATOM      7  C   UNL     1      23.453   6.000  49.398  1.00  0.00     0.230 A 
ATOM      8  C   UNL     1      22.656   4.976  51.357  1.00  0.00     0.081 A 
ATOM      9  N   UNL     1      22.504   6.956  49.464  1.00  0.00    -0.201 NA
ATOM     10  N   UNL     1      21.687   5.897  51.438  1.00  0.00    -0.236 NA
ATOM     11  C   UNL     1      21.655   6.841  50.485  1.00  0.00     0.226 A 
BRANCH   3  12
ATOM     12  O   UNL     1      25.608   1.989  51.322  1.00  0.00    -0.493 OA
ATOM     13  C   UNL     1      26.958   2.364  51.556  1.00  0.00     0.278 C 
ENDBRANCH   3  12
BRANCH   7  14
ATOM     14  O   UNL     1      24.399   6.080  48.378  1.00  0.00    -0.435 OA
BRANCH  14  15
ATOM     15  C   UNL     1      25.417   6.984  48.574  1.00  0.00     0.165 A 
ATOM     16  C   UNL     1      25.076   8.273  48.978  1.00  0.00     0.052 A 
ATOM     17  C   UNL     1      26.759   6.602  48.450  1.00  0.00     0.175 A 
ATOM     18  C   UNL     1      26.068   9.228  49.234  1.00  0.00     0.031 A 
ATOM     19  C   UNL     1      27.773   7.543  48.701  1.00  0.00     0.039 A 
ATOM     20  C   UNL     1      27.406   8.834  49.086  1.00  0.00     0.049 A 
ATOM     21  C   UNL     1      29.194   7.506  48.666  1.00  0.00     0.034 A 
ATOM     22  N   UNL     1      28.568   9.548  49.267  1.00  0.00    -0.359 N 
ATOM     23  C   UNL     1      29.664   8.755  49.019  1.00  0.00     0.013 A 
ATOM     24  F   UNL     1      27.074   5.342  48.114  1.00  0.00    -0.202 F 
ATOM     25  H   UNL     1      28.606  10.519  49.542  1.00  0.00     0.166 HD
ATOM     26  C   UNL     1      31.048   9.273  49.143  1.00  0.00     0.064 C 
ENDBRANCH  14  15
ENDBRANCH   7  14
ENDBRANCH   1   2
BRANCH   1  27
ATOM     27  C   UNL     1      22.982   0.866  53.143  1.00  0.00     0.231 C 
BRANCH  27  28
ATOM     28  C   UNL     1      23.732  -0.459  53.248  1.00  0.00     0.057 C 
BRANCH  28  29
ATOM     29  C   UNL     1      24.448  -0.735  54.578  1.00  0.00     0.088 C 
BRANCH  29  30
ATOM     30  N   UNL     1      25.898  -0.932  54.454  1.00  0.00    -0.303 NA
ATOM     31  C   UNL     1      26.338  -1.133  53.066  1.00  0.00     0.084 C 
ATOM     32  C   UNL     1      26.631   0.266  54.883  1.00  0.00     0.084 C 
ATOM     33  C   UNL     1      27.829  -0.822  53.104  1.00  0.00     0.017 C 
ATOM     34  C   UNL     1      28.033   0.017  54.358  1.00  0.00     0.017 C 
ENDBRANCH  29  30
ENDBRANCH  28  29
ENDBRANCH  27  28
ENDBRANCH   1  27
TORSDOF 8
ENDMDL
MODEL 6
REMARK VINA RESULT:    -7.581      3.679      5.831
REMARK INTER + INTRA:         -12.833
REMARK INTER:                 -11.581
REMARK INTRA:                  -1.252
REMARK UNBOUND:                -1.706
REMARK SMILES COc1cc2c(Oc3ccc4[nH]c(C)cc4c3F)ncnc2cc1OCCCN1CCCC1
REMARK SMILES IDX 25 1 24 2 3 3 4 4 5 5 23 6 6 7 22 8 19 9 21 10 20 11 2 12
REMARK SMILES IDX 1 13 7 14 8 15 9 16 17 17 10 18 16 19 11 20 15 21 12 22
REMARK SMILES IDX 13 23 18 24 14 26 26 27 27 28 28 29 29 30 30 31 33 32 31 33
REMARK SMILES IDX 32 34
REMARK H PARENT 12 25
ROOT
ATOM      1  O   UNL     1      29.648   8.840  48.070  1.00  0.00    -0.490 OA
ENDROOT
BRANCH   1   2
ATOM      2  C   UNL     1      28.610   8.022  48.439  1.00  0.00     0.163 A 
ATOM      3  C   UNL     1      28.708   6.681  48.035  1.00  0.00     0.161 A 
ATOM      4  C   UNL     1      27.690   5.793  48.385  1.00  0.00     0.066 A 
ATOM      5  C   UNL     1      26.579   6.237  49.143  1.00  0.00     0.067 A 
ATOM      6  C   UNL     1      27.513   8.439  49.201  1.00  0.00     0.079 A 
ATOM      7  C   UNL     1      25.507   5.435  49.542  1.00  0.00     0.230 A 
ATOM      8  C   UNL     1      26.492   7.569  49.556  1.00  0.00     0.081 A 
ATOM      9  N   UNL     1      24.445   5.877  50.246  1.00  0.00    -0.201 NA
ATOM     10  N   UNL     1      25.462   8.033  50.276  1.00  0.00    -0.236 NA
ATOM     11  C   UNL     1      24.490   7.164  50.590  1.00  0.00     0.226 A 
BRANCH   3  12
ATOM     12  O   UNL     1      29.814   6.348  47.296  1.00  0.00    -0.493 OA
ATOM     13  C   UNL     1      30.727   5.415  47.857  1.00  0.00     0.278 C 
ENDBRANCH   3  12
BRANCH   7  14
ATOM     14  O   UNL     1      25.508   4.108  49.116  1.00  0.00    -0.435 OA
BRANCH  14  15
ATOM     15  C   UNL     1      25.381   3.161  50.105  1.00  0.00     0.165 A 
ATOM     16  C   UNL     1      26.519   2.823  50.836  1.00  0.00     0.052 A 
ATOM     17  C   UNL     1      24.134   2.611  50.426  1.00  0.00     0.175 A 
ATOM     18  C   UNL     1      26.448   1.896  51.883  1.00  0.00     0.031 A 
ATOM     19  C   UNL     1      24.037   1.678  51.474  1.00  0.00     0.039 A 
ATOM     20  C   UNL     1      25.195   1.340  52.176  1.00  0.00     0.049 A 
ATOM     21  C   UNL     1      22.968   0.936  52.048  1.00  0.00     0.034 A 
ATOM     22  N   UNL     1      24.832   0.421  53.135  1.00  0.00    -0.359 N 
ATOM     23  C   UNL     1      23.483   0.167  53.072  1.00  0.00     0.013 A 
ATOM     24  F   UNL     1      23.036   2.987  49.752  1.00  0.00    -0.202 F 
ATOM     25  H   UNL     1      25.473  -0.005  53.790  1.00  0.00     0.166 HD
ATOM     26  C   UNL     1      22.824  -0.787  53.997  1.00  0.00     0.064 C 
ENDBRANCH  14  15
ENDBRANCH   7  14
ENDBRANCH   1   2
BRANCH   1  27
ATOM     27  C   UNL     1      30.646   9.170  49.034  1.00  0.00     0.231 C 
BRANCH  27  28
ATOM     28  C   UNL     1      30.573  10.620  49.503  1.00  0.00     0.057 C 
BRANCH  28  29
ATOM     29  C   UNL     1      30.701  11.697  48.416  1.00  0.00     0.088 C 
BRANCH  29  30
ATOM     30  N   UNL     1      29.742  12.802  48.543  1.00  0.00    -0.303 NA
ATOM     31  C   UNL     1      29.621  13.606  47.318  1.00  0.00     0.084 C 
ATOM     32  C   UNL     1      28.382  12.296  48.766  1.00  0.00     0.084 C 
ATOM     33  C   UNL     1      28.290  14.329  47.484  1.00  0.00     0.017 C 
ATOM     34  C   UNL     1      27.517  13.517  48.514  1.00  0.00     0.017 C 
ENDBRANCH  29  30
ENDBRANCH  28  29
ENDBRANCH  27  28
ENDBRANCH   1  27
TORSDOF 8
ENDMDL
MODEL 7
REMARK VINA RESULT:    -7.530      3.465      5.321
REMARK INTER + INTRA:         -12.758
REMARK INTER:                 -11.661
REMARK INTRA:                  -1.097
REMARK UNBOUND:                -1.706
REMARK SMILES COc1cc2c(Oc3ccc4[nH]c(C)cc4c3F)ncnc2cc1OCCCN1CCCC1
REMARK SMILES IDX 25 1 24 2 3 3 4 4 5 5 23 6 6 7 22 8 19 9 21 10 20 11 2 12
REMARK SMILES IDX 1 13 7 14 8 15 9 16 17 17 10 18 16 19 11 20 15 21 12 22
REMARK SMILES IDX 13 23 18 24 14 26 26 27 27 28 28 29 29 30 30 31 33 32 31 33
REMARK SMILES IDX 32 34
REMARK H PARENT 12 25
ROOT
ATOM      1  O   UNL     1      28.554   8.614  48.282  1.00  0.00    -0.490 OA
ENDROOT
BRANCH   1   2
ATOM      2  C   UNL     1      27.629   7.712  48.746  1.00  0.00     0.163 A 
ATOM      3  C   UNL     1      27.840   6.372  48.384  1.00  0.00     0.161 A 
ATOM      4  C   UNL     1      26.942   5.403  48.830  1.00  0.00     0.066 A 
ATOM      5  C   UNL     1      25.838   5.764  49.641  1.00  0.00     0.067 A 
ATOM      6  C   UNL     1      26.544   8.049  49.561  1.00  0.00     0.079 A 
ATOM      7  C   UNL     1      24.880   4.876  50.137  1.00  0.00     0.230 A 
ATOM      8  C   UNL     1      25.640   7.096  50.012  1.00  0.00     0.081 A 
ATOM      9  N   UNL     1      23.823   5.238  50.891  1.00  0.00    -0.201 NA
ATOM     10  N   UNL     1      24.614   7.485  50.779  1.00  0.00    -0.236 NA
ATOM     11  C   UNL     1      23.757   6.537  51.186  1.00  0.00     0.226 A 
BRANCH   3  12
ATOM     12  O   UNL     1      28.928   6.121  47.588  1.00  0.00    -0.493 OA
ATOM     13  C   UNL     1      30.093   5.595  48.208  1.00  0.00     0.278 C 
ENDBRANCH   3  12
BRANCH   7  14
ATOM     14  O   UNL     1      24.992   3.540  49.759  1.00  0.00    -0.435 OA
BRANCH  14  15
ATOM     15  C   UNL     1      24.887   2.619  50.775  1.00  0.00     0.165 A 
ATOM     16  C   UNL     1      26.016   2.378  51.557  1.00  0.00     0.052 A 
ATOM     17  C   UNL     1      23.666   2.000  51.069  1.00  0.00     0.175 A 
ATOM     18  C   UNL     1      25.963   1.482  52.632  1.00  0.00     0.031 A 
ATOM     19  C   UNL     1      23.587   1.096  52.144  1.00  0.00     0.039 A 
ATOM     20  C   UNL     1      24.737   0.857  52.899  1.00  0.00     0.049 A 
ATOM     21  C   UNL     1      22.547   0.306  52.705  1.00  0.00     0.034 A 
ATOM     22  N   UNL     1      24.397  -0.052  53.875  1.00  0.00    -0.359 N 
ATOM     23  C   UNL     1      23.069  -0.395  53.772  1.00  0.00     0.013 A 
ATOM     24  F   UNL     1      22.573   2.283  50.343  1.00  0.00    -0.202 F 
ATOM     25  H   UNL     1      25.037  -0.415  54.567  1.00  0.00     0.166 HD
ATOM     26  C   UNL     1      22.436  -1.358  54.706  1.00  0.00     0.064 C 
ENDBRANCH  14  15
ENDBRANCH   7  14
ENDBRANCH   1   2
BRANCH   1  27
ATOM     27  C   UNL     1      29.421   9.258  49.214  1.00  0.00     0.231 C 
BRANCH  27  28
ATOM     28  C   UNL     1      30.477  10.134  48.547  1.00  0.00     0.057 C 
BRANCH  28  29
ATOM     29  C   UNL     1      30.684  11.532  49.147  1.00  0.00     0.088 C 
BRANCH  29  30
ATOM     30  N   UNL     1      29.963  12.603  48.449  1.00  0.00    -0.303 NA
ATOM     31  C   UNL     1      29.594  12.249  47.070  1.00  0.00     0.084 C 
ATOM     32  C   UNL     1      28.674  12.879  49.096  1.00  0.00     0.084 C 
ATOM     33  C   UNL     1      28.480  13.230  46.724  1.00  0.00     0.017 C 
ATOM     34  C   UNL     1      27.944  13.718  48.062  1.00  0.00     0.017 C 
ENDBRANCH  29  30
ENDBRANCH  28  29
ENDBRANCH  27  28
ENDBRANCH   1  27
TORSDOF 8
ENDMDL
MODEL 8
REMARK VINA RESULT:    -7.459      2.723      8.318
REMARK INTER + INTRA:         -12.654
REMARK INTER:                 -12.329
REMARK INTRA:                  -0.325
REMARK UNBOUND:                -1.706
REMARK SMILES COc1cc2c(Oc3ccc4[nH]c(C)cc4c3F)ncnc2cc1OCCCN1CCCC1
REMARK SMILES IDX 25 1 24 2 3 3 4 4 5 5 23 6 6 7 22 8 19 9 21 10 20 11 2 12
REMARK SMILES IDX 1 13 7 14 8 15 9 16 17 17 10 18 16 19 11 20 15 21 12 22
REMARK SMILES IDX 13 23 18 24 14 26 26 27 27 28 28 29 29 30 30 31 33 32 31 33
REMARK SMILES IDX 32 34
REMARK H PARENT 12 25
ROOT
ATOM      1  O   UNL     1      26.309   1.354  54.627  1.00  0.00    -0.490 OA
ENDROOT
BRANCH   1   2
ATOM      2  C   UNL     1      26.043   1.985  53.438  1.00  0.00     0.163 A 
ATOM      3  C   UNL     1      27.117   2.084  52.539  1.00  0.00     0.161 A 
ATOM      4  C   UNL     1      26.912   2.706  51.308  1.00  0.00     0.066 A 
ATOM      5  C   UNL     1      25.638   3.223  50.966  1.00  0.00     0.067 A 
ATOM      6  C   UNL     1      24.788   2.485  53.077  1.00  0.00     0.079 A 
ATOM      7  C   UNL     1      25.327   3.865  49.765  1.00  0.00     0.230 A 
ATOM      8  C   UNL     1      24.568   3.108  51.856  1.00  0.00     0.081 A 
ATOM      9  N   UNL     1      24.114   4.369  49.462  1.00  0.00    -0.201 NA
ATOM     10  N   UNL     1      23.345   3.578  51.577  1.00  0.00    -0.236 NA
ATOM     11  C   UNL     1      23.176   4.183  50.392  1.00  0.00     0.226 A 
BRANCH   3  12
ATOM     12  O   UNL     1      28.314   1.566  52.962  1.00  0.00    -0.493 OA
ATOM     13  C   UNL     1      29.129   2.378  53.794  1.00  0.00     0.278 C 
ENDBRANCH   3  12
BRANCH   7  14
ATOM     14  O   UNL     1      26.365   4.057  48.856  1.00  0.00    -0.435 OA
BRANCH  14  15
ATOM     15  C   UNL     1      26.870   5.335  48.784  1.00  0.00     0.165 A 
ATOM     16  C   UNL     1      26.062   6.381  49.226  1.00  0.00     0.052 A 
ATOM     17  C   UNL     1      28.182   5.573  48.357  1.00  0.00     0.175 A 
ATOM     18  C   UNL     1      26.532   7.700  49.217  1.00  0.00     0.031 A 
ATOM     19  C   UNL     1      28.677   6.889  48.339  1.00  0.00     0.039 A 
ATOM     20  C   UNL     1      27.842   7.922  48.767  1.00  0.00     0.049 A 
ATOM     21  C   UNL     1      29.917   7.481  47.971  1.00  0.00     0.034 A 
ATOM     22  N   UNL     1      28.555   9.094  48.652  1.00  0.00    -0.359 N 
ATOM     23  C   UNL     1      29.819   8.842  48.172  1.00  0.00     0.013 A 
ATOM     24  F   UNL     1      28.969   4.551  47.988  1.00  0.00    -0.202 F 
ATOM     25  H   UNL     1      28.196  10.008  48.887  1.00  0.00     0.166 HD
ATOM     26  C   UNL     1      30.803   9.930  47.955  1.00  0.00     0.064 C 
ENDBRANCH  14  15
ENDBRANCH   7  14
ENDBRANCH   1   2
BRANCH   1  27
ATOM     27  C   UNL     1      26.262  -0.071  54.682  1.00  0.00     0.231 C 
BRANCH  27  28
ATOM     28  C   UNL     1      24.841  -0.624  54.742  1.00  0.00     0.057 C 
BRANCH  28  29
ATOM     29  C   UNL     1      24.191  -0.983  53.398  1.00  0.00     0.088 C 
BRANCH  29  30
ATOM     30  N   UNL     1      22.722  -0.990  53.420  1.00  0.00    -0.303 NA
ATOM     31  C   UNL     1      22.162  -0.620  54.728  1.00  0.00     0.084 C 
ATOM     32  C   UNL     1      22.177   0.021  52.506  1.00  0.00     0.084 C 
ATOM     33  C   UNL     1      20.727  -0.215  54.410  1.00  0.00     0.017 C 
ATOM     34  C   UNL     1      20.720   0.111  52.923  1.00  0.00     0.017 C 
ENDBRANCH  29  30
ENDBRANCH  28  29
ENDBRANCH  27  28
ENDBRANCH   1  27
TORSDOF 8
ENDMDL
MODEL 9
REMARK VINA RESULT:    -7.456      2.246      3.087
REMARK INTER + INTRA:         -12.649
REMARK INTER:                 -11.454
REMARK INTRA:                  -1.195
REMARK UNBOUND:                -1.706
REMARK SMILES COc1cc2c(Oc3ccc4[nH]c(C)cc4c3F)ncnc2cc1OCCCN1CCCC1
REMARK SMILES IDX 25 1 24 2 3 3 4 4 5 5 23 6 6 7 22 8 19 9 21 10 20 11 2 12
REMARK SMILES IDX 1 13 7 14 8 15 9 16 17 17 10 18 16 19 11 20 15 21 12 22
REMARK SMILES IDX 13 23 18 24 14 26 26 27 27 28 28 29 29 30 30 31 33 32 31 33
REMARK SMILES IDX 32 34
REMARK H PARENT 12 25
ROOT
ATOM      1  O   UNL     1      25.452   8.391  48.906  1.00  0.00    -0.490 OA
ENDROOT
BRANCH   1   2
ATOM      2  C   UNL     1      24.821   7.247  49.325  1.00  0.00     0.163 A 
ATOM      3  C   UNL     1      25.486   6.040  49.050  1.00  0.00     0.161 A 
ATOM      4  C   UNL     1      24.903   4.840  49.457  1.00  0.00     0.066 A 
ATOM      5  C   UNL     1      23.664   4.839  50.144  1.00  0.00     0.067 A 
ATOM      6  C   UNL     1      23.607   7.228  50.019  1.00  0.00     0.079 A 
ATOM      7  C   UNL     1      22.995   3.697  50.591  1.00  0.00     0.230 A 
ATOM      8  C   UNL     1      23.014   6.042  50.429  1.00  0.00     0.081 A 
ATOM      9  N   UNL     1      21.805   3.711  51.226  1.00  0.00    -0.201 NA
ATOM     10  N   UNL     1      21.843   6.091  51.078  1.00  0.00    -0.236 NA
ATOM     11  C   UNL     1      21.297   4.923  51.449  1.00  0.00     0.226 A 
BRANCH   3  12
ATOM     12  O   UNL     1      26.673   6.141  48.372  1.00  0.00    -0.493 OA
ATOM     13  C   UNL     1      27.667   5.160  48.630  1.00  0.00     0.278 C 
ENDBRANCH   3  12
BRANCH   7  14
ATOM     14  O   UNL     1      23.566   2.463  50.291  1.00  0.00    -0.435 OA
BRANCH  14  15
ATOM     15  C   UNL     1      24.246   1.851  51.318  1.00  0.00     0.165 A 
ATOM     16  C   UNL     1      23.505   1.130  52.253  1.00  0.00     0.052 A 
ATOM     17  C   UNL     1      25.645   1.882  51.382  1.00  0.00     0.175 A 
ATOM     18  C   UNL     1      24.140   0.450  53.299  1.00  0.00     0.031 A 
ATOM     19  C   UNL     1      26.306   1.207  52.423  1.00  0.00     0.039 A 
ATOM     20  C   UNL     1      25.540   0.508  53.358  1.00  0.00     0.049 A 
ATOM     21  C   UNL     1      27.670   1.037  52.790  1.00  0.00     0.034 A 
ATOM     22  N   UNL     1      26.416  -0.054  54.259  1.00  0.00    -0.359 N 
ATOM     23  C   UNL     1      27.713   0.255  53.926  1.00  0.00     0.013 A 
ATOM     24  F   UNL     1      26.350   2.533  50.444  1.00  0.00    -0.202 F 
ATOM     25  H   UNL     1      26.139  -0.614  55.053  1.00  0.00     0.166 HD
ATOM     26  C   UNL     1      28.862  -0.228  54.730  1.00  0.00     0.064 C 
ENDBRANCH  14  15
ENDBRANCH   7  14
ENDBRANCH   1   2
BRANCH   1  27
ATOM     27  C   UNL     1      25.983   9.286  49.881  1.00  0.00     0.231 C 
BRANCH  27  28
ATOM     28  C   UNL     1      27.483   9.117  50.100  1.00  0.00     0.057 C 
BRANCH  28  29
ATOM     29  C   UNL     1      28.368   9.188  48.847  1.00  0.00     0.088 C 
BRANCH  29  30
ATOM     30  N   UNL     1      29.594   8.384  48.926  1.00  0.00    -0.303 NA
ATOM     31  C   UNL     1      30.014   7.841  47.626  1.00  0.00     0.084 C 
ATOM     32  C   UNL     1      30.736   9.205  49.348  1.00  0.00     0.084 C 
ATOM     33  C   UNL     1      31.485   7.496  47.830  1.00  0.00     0.017 C 
ATOM     34  C   UNL     1      31.929   8.322  49.028  1.00  0.00     0.017 C 
ENDBRANCH  29  30
ENDBRANCH  28  29
ENDBRANCH  27  28
ENDBRANCH   1  27
TORSDOF 8
ENDMDL
MODEL 10
REMARK VINA RESULT:    -7.409      4.391      7.908
REMARK INTER + INTRA:         -12.581
REMARK INTER:                 -10.890
REMARK INTRA:                  -1.691
REMARK UNBOUND:                -1.706
REMARK SMILES COc1cc2c(Oc3ccc4[nH]c(C)cc4c3F)ncnc2cc1OCCCN1CCCC1
REMARK SMILES IDX 25 1 24 2 3 3 4 4 5 5 23 6 6 7 22 8 19 9 21 10 20 11 2 12
REMARK SMILES IDX 1 13 7 14 8 15 9 16 17 17 10 18 16 19 11 20 15 21 12 22
REMARK SMILES IDX 13 23 18 24 14 26 26 27 27 28 28 29 29 30 30 31 33 32 31 33
REMARK SMILES IDX 32 34
REMARK H PARENT 12 25
ROOT
ATOM      1  O   UNL     1      33.651   6.055  48.868  1.00  0.00    -0.490 OA
ENDROOT
BRANCH   1   2
ATOM      2  C   UNL     1      32.339   6.444  48.777  1.00  0.00     0.163 A 
ATOM      3  C   UNL     1      31.434   5.464  48.338  1.00  0.00     0.161 A 
ATOM      4  C   UNL     1      30.082   5.791  48.232  1.00  0.00     0.066 A 
ATOM      5  C   UNL     1      29.628   7.090  48.570  1.00  0.00     0.067 A 
ATOM      6  C   UNL     1      31.871   7.716  49.122  1.00  0.00     0.079 A 
ATOM      7  C   UNL     1      28.302   7.522  48.497  1.00  0.00     0.230 A 
ATOM      8  C   UNL     1      30.529   8.058  49.021  1.00  0.00     0.081 A 
ATOM      9  N   UNL     1      27.888   8.768  48.802  1.00  0.00    -0.201 NA
ATOM     10  N   UNL     1      30.147   9.298  49.354  1.00  0.00    -0.236 NA
ATOM     11  C   UNL     1      28.844   9.592  49.233  1.00  0.00     0.226 A 
BRANCH   3  12
ATOM     12  O   UNL     1      31.967   4.241  48.024  1.00  0.00    -0.493 OA
ATOM     13  C   UNL     1      31.895   3.816  46.671  1.00  0.00     0.278 C 
ENDBRANCH   3  12
BRANCH   7  14
ATOM     14  O   UNL     1      27.362   6.619  48.003  1.00  0.00    -0.435 OA
BRANCH  14  15
ATOM     15  C   UNL     1      26.587   5.986  48.946  1.00  0.00     0.165 A 
ATOM     16  C   UNL     1      25.585   6.726  49.572  1.00  0.00     0.052 A 
ATOM     17  C   UNL     1      26.743   4.620  49.214  1.00  0.00     0.175 A 
ATOM     18  C   UNL     1      24.735   6.129  50.511  1.00  0.00     0.031 A 
ATOM     19  C   UNL     1      25.902   3.997  50.154  1.00  0.00     0.039 A 
ATOM     20  C   UNL     1      24.919   4.765  50.781  1.00  0.00     0.049 A 
ATOM     21  C   UNL     1      25.786   2.674  50.662  1.00  0.00     0.034 A 
ATOM     22  N   UNL     1      24.243   3.930  51.642  1.00  0.00    -0.359 N 
ATOM     23  C   UNL     1      24.755   2.656  51.579  1.00  0.00     0.013 A 
ATOM     24  F   UNL     1      27.675   3.906  48.565  1.00  0.00    -0.202 F 
ATOM     25  H   UNL     1      23.478   4.219  52.236  1.00  0.00     0.166 HD
ATOM     26  C   UNL     1      24.207   1.552  52.404  1.00  0.00     0.064 C 
ENDBRANCH  14  15
ENDBRANCH   7  14
ENDBRANCH   1   2
BRANCH   1  27
ATOM     27  C   UNL     1      34.514   6.261  47.750  1.00  0.00     0.231 C 
BRANCH  27  28
ATOM     28  C   UNL     1      34.301   7.608  47.067  1.00  0.00     0.057 C 
BRANCH  28  29
ATOM     29  C   UNL     1      34.015   7.572  45.559  1.00  0.00     0.088 C 
BRANCH  29  30
ATOM     30  N   UNL     1      32.795   8.285  45.158  1.00  0.00    -0.303 NA
ATOM     31  C   UNL     1      31.585   7.455  45.244  1.00  0.00     0.084 C 
ATOM     32  C   UNL     1      32.518   9.405  46.065  1.00  0.00     0.084 C 
ATOM     33  C   UNL     1      30.447   8.468  45.279  1.00  0.00     0.017 C 
ATOM     34  C   UNL     1      31.086   9.776  45.724  1.00  0.00     0.017 C 
ENDBRANCH  29  30
ENDBRANCH  28  29
ENDBRANCH  27  28
ENDBRANCH   1  27
TORSDOF 8
ENDMDL
MODEL 11
REMARK VINA RESULT:    -7.393      2.511      4.587
REMARK INTER + INTRA:         -12.557
REMARK INTER:                 -10.559
REMARK INTRA:                  -1.998
REMARK UNBOUND:                -1.706
REMARK SMILES COc1cc2c(Oc3ccc4[nH]c(C)cc4c3F)ncnc2cc1OCCCN1CCCC1
REMARK SMILES IDX 25 1 24 2 3 3 4 4 5 5 23 6 6 7 22 8 19 9 21 10 20 11 2 12
REMARK SMILES IDX 1 13 7 14 8 15 9 16 17 17 10 18 16 19 11 20 15 21 12 22
REMARK SMILES IDX 13 23 18 24 14 26 26 27 27 28 28 29 29 30 30 31 33 32 31 33
REMARK SMILES IDX 32 34
REMARK H PARENT 12 25
ROOT
ATOM      1  O   UNL     1      28.281   8.763  48.464  1.00  0.00    -0.490 OA
ENDROOT
BRANCH   1   2
ATOM      2  C   UNL     1      27.382   7.827  48.910  1.00  0.00     0.163 A 
ATOM      3  C   UNL     1      27.605   6.507  48.486  1.00  0.00     0.161 A 
ATOM      4  C   UNL     1      26.733   5.504  48.911  1.00  0.00     0.066 A 
ATOM      5  C   UNL     1      25.645   5.812  49.763  1.00  0.00     0.067 A 
ATOM      6  C   UNL     1      26.312   8.109  49.765  1.00  0.00     0.079 A 
ATOM      7  C   UNL     1      24.713   4.887  50.243  1.00  0.00     0.230 A 
ATOM      8  C   UNL     1      25.435   7.123  50.196  1.00  0.00     0.081 A 
ATOM      9  N   UNL     1      23.670   5.199  51.037  1.00  0.00    -0.201 NA
ATOM     10  N   UNL     1      24.422   7.462  51.004  1.00  0.00    -0.236 NA
ATOM     11  C   UNL     1      23.590   6.483  51.389  1.00  0.00     0.226 A 
BRANCH   3  12
ATOM     12  O   UNL     1      28.677   6.308  47.654  1.00  0.00    -0.493 OA
ATOM     13  C   UNL     1      29.658   5.363  48.055  1.00  0.00     0.278 C 
ENDBRANCH   3  12
BRANCH   7  14
ATOM     14  O   UNL     1      24.837   3.570  49.805  1.00  0.00    -0.435 OA
BRANCH  14  15
ATOM     15  C   UNL     1      24.681   2.601  50.767  1.00  0.00     0.165 A 
ATOM     16  C   UNL     1      25.777   2.299  51.574  1.00  0.00     0.052 A 
ATOM     17  C   UNL     1      23.439   1.992  50.988  1.00  0.00     0.175 A 
ATOM     18  C   UNL     1      25.672   1.352  52.599  1.00  0.00     0.031 A 
ATOM     19  C   UNL     1      23.308   1.037  52.012  1.00  0.00     0.039 A 
ATOM     20  C   UNL     1      24.426   0.737  52.793  1.00  0.00     0.049 A 
ATOM     21  C   UNL     1      22.235   0.239  52.497  1.00  0.00     0.034 A 
ATOM     22  N   UNL     1      24.037  -0.214  53.708  1.00  0.00    -0.359 N 
ATOM     23  C   UNL     1      22.708  -0.525  53.544  1.00  0.00     0.013 A 
ATOM     24  F   UNL     1      22.377   2.332  50.242  1.00  0.00    -0.202 F 
ATOM     25  H   UNL     1      24.647  -0.624  54.402  1.00  0.00     0.166 HD
ATOM     26  C   UNL     1      22.027  -1.522  54.404  1.00  0.00     0.064 C 
ENDBRANCH  14  15
ENDBRANCH   7  14
ENDBRANCH   1   2
BRANCH   1  27
ATOM     27  C   UNL     1      27.809   9.858  47.681  1.00  0.00     0.231 C 
BRANCH  27  28
ATOM     28  C   UNL     1      27.165   9.425  46.368  1.00  0.00     0.057 C 
BRANCH  28  29
ATOM     29  C   UNL     1      25.890  10.173  45.952  1.00  0.00     0.088 C 
BRANCH  29  30
ATOM     30  N   UNL     1      24.645   9.447  46.231  1.00  0.00    -0.303 NA
ATOM     31  C   UNL     1      24.828   7.990  46.300  1.00  0.00     0.084 C 
ATOM     32  C   UNL     1      24.117   9.797  47.556  1.00  0.00     0.084 C 
ATOM     33  C   UNL     1      23.600   7.501  47.058  1.00  0.00     0.017 C 
ATOM     34  C   UNL     1      23.077   8.719  47.805  1.00  0.00     0.017 C 
ENDBRANCH  29  30
ENDBRANCH  28  29
ENDBRANCH  27  28
ENDBRANCH   1  27
TORSDOF 8
ENDMDL
MODEL 12
REMARK VINA RESULT:    -7.369      2.835      7.829
REMARK INTER + INTRA:         -12.522
REMARK INTER:                 -11.565
REMARK INTRA:                  -0.956
REMARK UNBOUND:                -1.706
REMARK SMILES COc1cc2c(Oc3ccc4[nH]c(C)cc4c3F)ncnc2cc1OCCCN1CCCC1
REMARK SMILES IDX 25 1 24 2 3 3 4 4 5 5 23 6 6 7 22 8 19 9 21 10 20 11 2 12
REMARK SMILES IDX 1 13 7 14 8 15 9 16 17 17 10 18 16 19 11 20 15 21 12 22
REMARK SMILES IDX 13 23 18 24 14 26 26 27 27 28 28 29 29 30 30 31 33 32 31 33
REMARK SMILES IDX 32 34
REMARK H PARENT 12 25
ROOT
ATOM      1  O   UNL     1      20.792   3.417  52.227  1.00  0.00    -0.490 OA
ENDROOT
BRANCH   1   2
ATOM      2  C   UNL     1      22.010   3.620  51.630  1.00  0.00     0.163 A 
ATOM      3  C   UNL     1      22.054   4.615  50.641  1.00  0.00     0.161 A 
ATOM      4  C   UNL     1      23.265   4.879  50.000  1.00  0.00     0.066 A 
ATOM      5  C   UNL     1      24.434   4.159  50.349  1.00  0.00     0.067 A 
ATOM      6  C   UNL     1      23.178   2.931  51.973  1.00  0.00     0.079 A 
ATOM      7  C   UNL     1      25.692   4.342  49.770  1.00  0.00     0.230 A 
ATOM      8  C   UNL     1      24.391   3.181  51.345  1.00  0.00     0.081 A 
ATOM      9  N   UNL     1      26.792   3.634  50.098  1.00  0.00    -0.201 NA
ATOM     10  N   UNL     1      25.470   2.477  51.710  1.00  0.00    -0.236 NA
ATOM     11  C   UNL     1      26.620   2.740  51.072  1.00  0.00     0.226 A 
BRANCH   3  12
ATOM     12  O   UNL     1      20.871   5.250  50.364  1.00  0.00    -0.493 OA
ATOM     13  C   UNL     1      20.913   6.648  50.115  1.00  0.00     0.278 C 
ENDBRANCH   3  12
BRANCH   7  14
ATOM     14  O   UNL     1      25.790   5.267  48.733  1.00  0.00    -0.435 OA
BRANCH  14  15
ATOM     15  C   UNL     1      26.441   6.440  49.036  1.00  0.00     0.165 A 
ATOM     16  C   UNL     1      25.831   7.311  49.937  1.00  0.00     0.052 A 
ATOM     17  C   UNL     1      27.713   6.717  48.520  1.00  0.00     0.175 A 
ATOM     18  C   UNL     1      26.461   8.502  50.318  1.00  0.00     0.031 A 
ATOM     19  C   UNL     1      28.366   7.907  48.887  1.00  0.00     0.039 A 
ATOM     20  C   UNL     1      27.726   8.773  49.776  1.00  0.00     0.049 A 
ATOM     21  C   UNL     1      29.619   8.496  48.561  1.00  0.00     0.034 A 
ATOM     22  N   UNL     1      28.564   9.847  49.968  1.00  0.00    -0.359 N 
ATOM     23  C   UNL     1      29.720   9.693  49.240  1.00  0.00     0.013 A 
ATOM     24  F   UNL     1      28.314   5.844  47.697  1.00  0.00    -0.202 F 
ATOM     25  H   UNL     1      28.354  10.637  50.562  1.00  0.00     0.166 HD
ATOM     26  C   UNL     1      30.802  10.707  49.267  1.00  0.00     0.064 C 
ENDBRANCH  14  15
ENDBRANCH   7  14
ENDBRANCH   1   2
BRANCH   1  27
ATOM     27  C   UNL     1      19.789   2.685  51.524  1.00  0.00     0.231 C 
BRANCH  27  28
ATOM     28  C   UNL     1      20.259   1.306  51.070  1.00  0.00     0.057 C 
BRANCH  28  29
ATOM     29  C   UNL     1      19.954   0.135  52.016  1.00  0.00     0.088 C 
BRANCH  29  30
ATOM     30  N   UNL     1      20.902  -0.007  53.128  1.00  0.00    -0.303 NA
ATOM     31  C   UNL     1      20.603  -1.152  54.000  1.00  0.00     0.084 C 
ATOM     32  C   UNL     1      22.256  -0.288  52.632  1.00  0.00     0.084 C 
ATOM     33  C   UNL     1      21.914  -1.407  54.734  1.00  0.00     0.017 C 
ATOM     34  C   UNL     1      22.988  -0.749  53.880  1.00  0.00     0.017 C 
ENDBRANCH  29  30
ENDBRANCH  28  29
ENDBRANCH  27  28
ENDBRANCH   1  27
TORSDOF 8
ENDMDL
MODEL 13
REMARK VINA RESULT:    -7.294      3.055      9.247
REMARK INTER + INTRA:         -12.412
REMARK INTER:                 -11.558
REMARK INTRA:                  -0.853
REMARK UNBOUND:                -1.706
REMARK SMILES COc1cc2c(Oc3ccc4[nH]c(C)cc4c3F)ncnc2cc1OCCCN1CCCC1
REMARK SMILES IDX 25 1 24 2 3 3 4 4 5 5 23 6 6 7 22 8 19 9 21 10 20 11 2 12
REMARK SMILES IDX 1 13 7 14 8 15 9 16 17 17 10 18 16 19 11 20 15 21 12 22
REMARK SMILES IDX 13 23 18 24 14 26 26 27 27 28 28 29 29 30 30 31 33 32 31 33
REMARK SMILES IDX 32 34
REMARK H PARENT 12 25
ROOT
ATOM      1  O   UNL     1      24.782   2.112  51.011  1.00  0.00    -0.490 OA
ENDROOT
BRANCH   1   2
ATOM      2  C   UNL     1      25.236   3.267  50.425  1.00  0.00     0.163 A 
ATOM      3  C   UNL     1      24.374   4.373  50.492  1.00  0.00     0.161 A 
ATOM      4  C   UNL     1      24.778   5.581  49.924  1.00  0.00     0.066 A 
ATOM      5  C   UNL     1      26.042   5.692  49.295  1.00  0.00     0.067 A 
ATOM      6  C   UNL     1      26.488   3.399  49.815  1.00  0.00     0.079 A 
ATOM      7  C   UNL     1      26.541   6.850  48.694  1.00  0.00     0.230 A 
ATOM      8  C   UNL     1      26.904   4.594  49.244  1.00  0.00     0.081 A 
ATOM      9  N   UNL     1      27.739   6.935  48.081  1.00  0.00    -0.201 NA
ATOM     10  N   UNL     1      28.110   4.652  48.663  1.00  0.00    -0.236 NA
ATOM     11  C   UNL     1      28.471   5.820  48.113  1.00  0.00     0.226 A 
BRANCH   3  12
ATOM     12  O   UNL     1      23.167   4.166  51.110  1.00  0.00    -0.493 OA
ATOM     13  C   UNL     1      22.981   4.727  52.402  1.00  0.00     0.278 C 
ENDBRANCH   3  12
BRANCH   7  14
ATOM     14  O   UNL     1      25.707   7.965  48.666  1.00  0.00    -0.435 OA
BRANCH  14  15
ATOM     15  C   UNL     1      26.220   9.081  48.047  1.00  0.00     0.165 A 
ATOM     16  C   UNL     1      25.922   9.276  46.700  1.00  0.00     0.052 A 
ATOM     17  C   UNL     1      26.951  10.036  48.765  1.00  0.00     0.175 A 
ATOM     18  C   UNL     1      26.379  10.414  46.023  1.00  0.00     0.031 A 
ATOM     19  C   UNL     1      27.422  11.187  48.108  1.00  0.00     0.039 A 
ATOM     20  C   UNL     1      27.127  11.349  46.753  1.00  0.00     0.049 A 
ATOM     21  C   UNL     1      28.178  12.323  48.509  1.00  0.00     0.034 A 
ATOM     22  N   UNL     1      27.694  12.538  46.355  1.00  0.00    -0.359 N 
ATOM     23  C   UNL     1      28.334  13.143  47.411  1.00  0.00     0.013 A 
ATOM     24  F   UNL     1      27.184   9.864  50.075  1.00  0.00    -0.202 F 
ATOM     25  H   UNL     1      27.646  12.910  45.417  1.00  0.00     0.166 HD
ATOM     26  C   UNL     1      29.030  14.444  47.261  1.00  0.00     0.064 C 
ENDBRANCH  14  15
ENDBRANCH   7  14
ENDBRANCH   1   2
BRANCH   1  27
ATOM     27  C   UNL     1      25.326   1.713  52.268  1.00  0.00     0.231 C 
BRANCH  27  28
ATOM     28  C   UNL     1      25.867   0.286  52.263  1.00  0.00     0.057 C 
BRANCH  28  29
ATOM     29  C   UNL     1      25.962  -0.413  53.626  1.00  0.00     0.088 C 
BRANCH  29  30
ATOM     30  N   UNL     1      27.302  -0.917  53.955  1.00  0.00    -0.303 NA
ATOM     31  C   UNL     1      27.821  -1.870  52.963  1.00  0.00     0.084 C 
ATOM     32  C   UNL     1      28.290   0.169  53.948  1.00  0.00     0.084 C 
ATOM     33  C   UNL     1      29.325  -1.872  53.207  1.00  0.00     0.017 C 
ATOM     34  C   UNL     1      29.615  -0.572  53.945  1.00  0.00     0.017 C 
ENDBRANCH  29  30
ENDBRANCH  28  29
ENDBRANCH  27  28
ENDBRANCH   1  27
TORSDOF 8
ENDMDL
MODEL 14
REMARK VINA RESULT:    -7.263      2.556      8.443
REMARK INTER + INTRA:         -12.366
REMARK INTER:                 -11.151
REMARK INTRA:                  -1.214
REMARK UNBOUND:                -1.706
REMARK SMILES COc1cc2c(Oc3ccc4[nH]c(C)cc4c3F)ncnc2cc1OCCCN1CCCC1
REMARK SMILES IDX 25 1 24 2 3 3 4 4 5 5 23 6 6 7 22 8 19 9 21 10 20 11 2 12
REMARK SMILES IDX 1 13 7 14 8 15 9 16 17 17 10 18 16 19 11 20 15 21 12 22
REMARK SMILES IDX 13 23 18 24 14 26 26 27 27 28 28 29 29 30 30 31 33 32 31 33
REMARK SMILES IDX 32 34
REMARK H PARENT 12 25
ROOT
ATOM      1  O   UNL     1      23.882   2.121  52.871  1.00  0.00    -0.490 OA
ENDROOT
BRANCH   1   2
ATOM      2  C   UNL     1      24.338   3.039  51.959  1.00  0.00     0.163 A 
ATOM      3  C   UNL     1      23.544   4.184  51.787  1.00  0.00     0.161 A 
ATOM      4  C   UNL     1      23.954   5.162  50.882  1.00  0.00     0.066 A 
ATOM      5  C   UNL     1      25.158   5.005  50.152  1.00  0.00     0.067 A 
ATOM      6  C   UNL     1      25.532   2.909  51.243  1.00  0.00     0.079 A 
ATOM      7  C   UNL     1      25.658   5.919  49.221  1.00  0.00     0.230 A 
ATOM      8  C   UNL     1      25.954   3.872  50.337  1.00  0.00     0.081 A 
ATOM      9  N   UNL     1      26.796   5.747  48.518  1.00  0.00    -0.201 NA
ATOM     10  N   UNL     1      27.101   3.682  49.672  1.00  0.00    -0.236 NA
ATOM     11  C   UNL     1      27.469   4.630  48.798  1.00  0.00     0.226 A 
BRANCH   3  12
ATOM     12  O   UNL     1      22.391   4.241  52.529  1.00  0.00    -0.493 OA
ATOM     13  C   UNL     1      21.173   3.894  51.885  1.00  0.00     0.278 C 
ENDBRANCH   3  12
BRANCH   7  14
ATOM     14  O   UNL     1      24.883   7.046  48.952  1.00  0.00    -0.435 OA
BRANCH  14  15
ATOM     15  C   UNL     1      24.363   7.126  47.682  1.00  0.00     0.165 A 
ATOM     16  C   UNL     1      23.149   6.488  47.432  1.00  0.00     0.052 A 
ATOM     17  C   UNL     1      24.988   7.892  46.690  1.00  0.00     0.175 A 
ATOM     18  C   UNL     1      22.546   6.567  46.171  1.00  0.00     0.031 A 
ATOM     19  C   UNL     1      24.402   7.987  45.415  1.00  0.00     0.039 A 
ATOM     20  C   UNL     1      23.196   7.321  45.184  1.00  0.00     0.049 A 
ATOM     21  C   UNL     1      24.752   8.648  44.206  1.00  0.00     0.034 A 
ATOM     22  N   UNL     1      22.842   7.570  43.877  1.00  0.00    -0.359 N 
ATOM     23  C   UNL     1      23.775   8.377  43.270  1.00  0.00     0.013 A 
ATOM     24  F   UNL     1      26.127   8.548  46.960  1.00  0.00    -0.202 F 
ATOM     25  H   UNL     1      22.011   7.207  43.431  1.00  0.00     0.166 HD
ATOM     26  C   UNL     1      23.637   8.805  41.857  1.00  0.00     0.064 C 
ENDBRANCH  14  15
ENDBRANCH   7  14
ENDBRANCH   1   2
BRANCH   1  27
ATOM     27  C   UNL     1      23.758   0.755  52.477  1.00  0.00     0.231 C 
BRANCH  27  28
ATOM     28  C   UNL     1      24.651  -0.186  53.281  1.00  0.00     0.057 C 
BRANCH  28  29
ATOM     29  C   UNL     1      25.824   0.460  54.031  1.00  0.00     0.088 C 
BRANCH  29  30
ATOM     30  N   UNL     1      27.007  -0.400  54.159  1.00  0.00    -0.303 NA
ATOM     31  C   UNL     1      27.255  -1.224  52.966  1.00  0.00     0.084 C 
ATOM     32  C   UNL     1      28.230   0.403  54.290  1.00  0.00     0.084 C 
ATOM     33  C   UNL     1      28.719  -1.628  53.097  1.00  0.00     0.017 C 
ATOM     34  C   UNL     1      29.333  -0.612  54.049  1.00  0.00     0.017 C 
ENDBRANCH  29  30
ENDBRANCH  28  29
ENDBRANCH  27  28
ENDBRANCH   1  27
TORSDOF 8
ENDMDL
MODEL 15
REMARK VINA RESULT:    -7.224      2.635      8.375
REMARK INTER + INTRA:         -12.308
REMARK INTER:                 -10.856
REMARK INTRA:                  -1.452
REMARK UNBOUND:                -1.706
REMARK SMILES COc1cc2c(Oc3ccc4[nH]c(C)cc4c3F)ncnc2cc1OCCCN1CCCC1
REMARK SMILES IDX 25 1 24 2 3 3 4 4 5 5 23 6 6 7 22 8 19 9 21 10 20 11 2 12
REMARK SMILES IDX 1 13 7 14 8 15 9 16 17 17 10 18 16 19 11 20 15 21 12 22
REMARK SMILES IDX 13 23 18 24 14 26 26 27 27 28 28 29 29 30 30 31 33 32 31 33
REMARK SMILES IDX 32 34
REMARK H PARENT 12 25
ROOT
ATOM      1  O   UNL     1      23.341   1.985  52.918  1.00  0.00    -0.490 OA
ENDROOT
BRANCH   1   2
ATOM      2  C   UNL     1      23.949   2.848  52.041  1.00  0.00     0.163 A 
ATOM      3  C   UNL     1      23.300   4.075  51.833  1.00  0.00     0.161 A 
ATOM      4  C   UNL     1      23.870   5.002  50.960  1.00  0.00     0.066 A 
ATOM      5  C   UNL     1      25.088   4.711  50.298  1.00  0.00     0.067 A 
ATOM      6  C   UNL     1      25.160   2.585  51.392  1.00  0.00     0.079 A 
ATOM      7  C   UNL     1      25.741   5.564  49.404  1.00  0.00     0.230 A 
ATOM      8  C   UNL     1      25.740   3.495  50.519  1.00  0.00     0.081 A 
ATOM      9  N   UNL     1      26.891   5.265  48.767  1.00  0.00    -0.201 NA
ATOM     10  N   UNL     1      26.894   3.177  49.920  1.00  0.00    -0.236 NA
ATOM     11  C   UNL     1      27.416   4.079  49.075  1.00  0.00     0.226 A 
BRANCH   3  12
ATOM     12  O   UNL     1      22.121   4.262  52.508  1.00  0.00    -0.493 OA
ATOM     13  C   UNL     1      20.916   4.224  51.756  1.00  0.00     0.278 C 
ENDBRANCH   3  12
BRANCH   7  14
ATOM     14  O   UNL     1      25.115   6.771  49.101  1.00  0.00    -0.435 OA
BRANCH  14  15
ATOM     15  C   UNL     1      25.934   7.874  49.049  1.00  0.00     0.165 A 
ATOM     16  C   UNL     1      26.441   8.368  50.250  1.00  0.00     0.052 A 
ATOM     17  C   UNL     1      26.314   8.438  47.825  1.00  0.00     0.175 A 
ATOM     18  C   UNL     1      27.313   9.463  50.262  1.00  0.00     0.031 A 
ATOM     19  C   UNL     1      27.189   9.539  47.810  1.00  0.00     0.039 A 
ATOM     20  C   UNL     1      27.667  10.028  49.027  1.00  0.00     0.049 A 
ATOM     21  C   UNL     1      27.761  10.341  46.785  1.00  0.00     0.034 A 
ATOM     22  N   UNL     1      28.492  11.091  48.740  1.00  0.00    -0.359 N 
ATOM     23  C   UNL     1      28.562  11.293  47.382  1.00  0.00     0.013 A 
ATOM     24  F   UNL     1      25.863   7.919  46.673  1.00  0.00    -0.202 F 
ATOM     25  H   UNL     1      28.975  11.645  49.434  1.00  0.00     0.166 HD
ATOM     26  C   UNL     1      29.387  12.377  46.794  1.00  0.00     0.064 C 
ENDBRANCH  14  15
ENDBRANCH   7  14
ENDBRANCH   1   2
BRANCH   1  27
ATOM     27  C   UNL     1      22.773   0.776  52.419  1.00  0.00     0.231 C 
BRANCH  27  28
ATOM     28  C   UNL     1      23.477  -0.476  52.934  1.00  0.00     0.057 C 
BRANCH  28  29
ATOM     29  C   UNL     1      24.196  -0.349  54.284  1.00  0.00     0.088 C 
BRANCH  29  30
ATOM     30  N   UNL     1      25.631  -0.657  54.237  1.00  0.00    -0.303 NA
ATOM     31  C   UNL     1      26.142  -0.822  52.868  1.00  0.00     0.084 C 
ATOM     32  C   UNL     1      26.426   0.453  54.776  1.00  0.00     0.084 C 
ATOM     33  C   UNL     1      27.648  -0.636  53.014  1.00  0.00     0.017 C 
ATOM     34  C   UNL     1      27.836   0.118  54.323  1.00  0.00     0.017 C 
ENDBRANCH  29  30
ENDBRANCH  28  29
ENDBRANCH  27  28
ENDBRANCH   1  27
TORSDOF 8
ENDMDL
MODEL 16
REMARK VINA RESULT:    -7.199      3.570      6.108
REMARK INTER + INTRA:         -12.272
REMARK INTER:                 -10.721
REMARK INTRA:                  -1.551
REMARK UNBOUND:                -1.706
REMARK SMILES COc1cc2c(Oc3ccc4[nH]c(C)cc4c3F)ncnc2cc1OCCCN1CCCC1
REMARK SMILES IDX 25 1 24 2 3 3 4 4 5 5 23 6 6 7 22 8 19 9 21 10 20 11 2 12
REMARK SMILES IDX 1 13 7 14 8 15 9 16 17 17 10 18 16 19 11 20 15 21 12 22
REMARK SMILES IDX 13 23 18 24 14 26 26 27 27 28 28 29 29 30 30 31 33 32 31 33
REMARK SMILES IDX 32 34
REMARK H PARENT 12 25
ROOT
ATOM      1  O   UNL     1      18.795  -0.044  50.884  1.00  0.00    -0.490 OA
ENDROOT
BRANCH   1   2
ATOM      2  C   UNL     1      20.038   0.504  51.073  1.00  0.00     0.163 A 
ATOM      3  C   UNL     1      20.598   0.337  52.350  1.00  0.00     0.161 A 
ATOM      4  C   UNL     1      21.864   0.862  52.607  1.00  0.00     0.066 A 
ATOM      5  C   UNL     1      22.578   1.547  51.593  1.00  0.00     0.067 A 
ATOM      6  C   UNL     1      20.764   1.168  50.079  1.00  0.00     0.079 A 
ATOM      7  C   UNL     1      23.846   2.113  51.745  1.00  0.00     0.230 A 
ATOM      8  C   UNL     1      22.025   1.698  50.319  1.00  0.00     0.081 A 
ATOM      9  N   UNL     1      24.504   2.780  50.775  1.00  0.00    -0.201 NA
ATOM     10  N   UNL     1      22.662   2.335  49.328  1.00  0.00    -0.236 NA
ATOM     11  C   UNL     1      23.873   2.842  49.603  1.00  0.00     0.226 A 
BRANCH   3  12
ATOM     12  O   UNL     1      19.829  -0.330  53.269  1.00  0.00    -0.493 OA
ATOM     13  C   UNL     1      20.455  -1.339  54.047  1.00  0.00     0.278 C 
ENDBRANCH   3  12
BRANCH   7  14
ATOM     14  O   UNL     1      24.430   2.043  53.008  1.00  0.00    -0.435 OA
BRANCH  14  15
ATOM     15  C   UNL     1      25.434   1.115  53.153  1.00  0.00     0.165 A 
ATOM     16  C   UNL     1      25.152  -0.210  52.822  1.00  0.00     0.052 A 
ATOM     17  C   UNL     1      26.724   1.497  53.543  1.00  0.00     0.175 A 
ATOM     18  C   UNL     1      26.143  -1.195  52.908  1.00  0.00     0.031 A 
ATOM     19  C   UNL     1      27.736   0.526  53.638  1.00  0.00     0.039 A 
ATOM     20  C   UNL     1      27.424  -0.797  53.320  1.00  0.00     0.049 A 
ATOM     21  C   UNL     1      29.112   0.555  53.998  1.00  0.00     0.034 A 
ATOM     22  N   UNL     1      28.571  -1.537  53.492  1.00  0.00    -0.359 N 
ATOM     23  C   UNL     1      29.607  -0.730  53.901  1.00  0.00     0.013 A 
ATOM     24  F   UNL     1      26.996   2.784  53.806  1.00  0.00    -0.202 F 
ATOM     25  H   UNL     1      28.639  -2.533  53.340  1.00  0.00     0.166 HD
ATOM     26  C   UNL     1      30.964  -1.270  54.158  1.00  0.00     0.064 C 
ENDBRANCH  14  15
ENDBRANCH   7  14
ENDBRANCH   1   2
BRANCH   1  27
ATOM     27  C   UNL     1      17.770   0.751  50.290  1.00  0.00     0.231 C 
BRANCH  27  28
ATOM     28  C   UNL     1      16.902   1.475  51.316  1.00  0.00     0.057 C 
BRANCH  28  29
ATOM     29  C   UNL     1      17.153   2.980  51.483  1.00  0.00     0.088 C 
BRANCH  29  30
ATOM     30  N   UNL     1      18.233   3.510  50.641  1.00  0.00    -0.303 NA
ATOM     31  C   UNL     1      17.803   4.620  49.779  1.00  0.00     0.084 C 
ATOM     32  C   UNL     1      19.300   4.097  51.462  1.00  0.00     0.084 C 
ATOM     33  C   UNL     1      19.105   5.314  49.397  1.00  0.00     0.017 C 
ATOM     34  C   UNL     1      20.114   4.886  50.453  1.00  0.00     0.017 C 
ENDBRANCH  29  30
ENDBRANCH  28  29
ENDBRANCH  27  28
ENDBRANCH   1  27
TORSDOF 8
ENDMDL
MODEL 17
REMARK VINA RESULT:    -7.180      2.455      7.541
REMARK INTER + INTRA:         -12.244
REMARK INTER:                 -10.841
REMARK INTRA:                  -1.402
REMARK UNBOUND:                -1.706
REMARK SMILES COc1cc2c(Oc3ccc4[nH]c(C)cc4c3F)ncnc2cc1OCCCN1CCCC1
REMARK SMILES IDX 25 1 24 2 3 3 4 4 5 5 23 6 6 7 22 8 19 9 21 10 20 11 2 12
REMARK SMILES IDX 1 13 7 14 8 15 9 16 17 17 10 18 16 19 11 20 15 21 12 22
REMARK SMILES IDX 13 23 18 24 14 26 26 27 27 28 28 29 29 30 30 31 33 32 31 33
REMARK SMILES IDX 32 34
REMARK H PARENT 12 25
ROOT
ATOM      1  O   UNL     1      21.640   1.507  49.190  1.00  0.00    -0.490 OA
ENDROOT
BRANCH   1   2
ATOM      2  C   UNL     1      22.345   2.678  49.073  1.00  0.00     0.163 A 
ATOM      3  C   UNL     1      23.394   2.862  49.988  1.00  0.00     0.161 A 
ATOM      4  C   UNL     1      24.156   4.027  49.918  1.00  0.00     0.066 A 
ATOM      5  C   UNL     1      23.881   5.008  48.934  1.00  0.00     0.067 A 
ATOM      6  C   UNL     1      22.098   3.650  48.097  1.00  0.00     0.079 A 
ATOM      7  C   UNL     1      24.578   6.209  48.779  1.00  0.00     0.230 A 
ATOM      8  C   UNL     1      22.846   4.816  48.015  1.00  0.00     0.081 A 
ATOM      9  N   UNL     1      24.290   7.143  47.850  1.00  0.00    -0.201 NA
ATOM     10  N   UNL     1      22.550   5.713  47.066  1.00  0.00    -0.236 NA
ATOM     11  C   UNL     1      23.289   6.832  47.026  1.00  0.00     0.226 A 
BRANCH   3  12
ATOM     12  O   UNL     1      23.578   1.863  50.910  1.00  0.00    -0.493 OA
ATOM     13  C   UNL     1      24.729   1.934  51.739  1.00  0.00     0.278 C 
ENDBRANCH   3  12
BRANCH   7  14
ATOM     14  O   UNL     1      25.588   6.484  49.698  1.00  0.00    -0.435 OA
BRANCH  14  15
ATOM     15  C   UNL     1      26.824   6.763  49.164  1.00  0.00     0.165 A 
ATOM     16  C   UNL     1      27.246   8.092  49.152  1.00  0.00     0.052 A 
ATOM     17  C   UNL     1      27.670   5.739  48.718  1.00  0.00     0.175 A 
ATOM     18  C   UNL     1      28.510   8.437  48.660  1.00  0.00     0.031 A 
ATOM     19  C   UNL     1      28.945   6.061  48.220  1.00  0.00     0.039 A 
ATOM     20  C   UNL     1      29.335   7.401  48.200  1.00  0.00     0.049 A 
ATOM     21  C   UNL     1      30.027   5.302  47.693  1.00  0.00     0.034 A 
ATOM     22  N   UNL     1      30.606   7.444  47.672  1.00  0.00    -0.359 N 
ATOM     23  C   UNL     1      31.041   6.177  47.362  1.00  0.00     0.013 A 
ATOM     24  F   UNL     1      27.274   4.459  48.787  1.00  0.00    -0.202 F 
ATOM     25  H   UNL     1      31.139   8.290  47.533  1.00  0.00     0.166 HD
ATOM     26  C   UNL     1      32.383   5.933  46.779  1.00  0.00     0.064 C 
ENDBRANCH  14  15
ENDBRANCH   7  14
ENDBRANCH   1   2
BRANCH   1  27
ATOM     27  C   UNL     1      20.251   1.562  49.511  1.00  0.00     0.231 C 
BRANCH  27  28
ATOM     28  C   UNL     1      19.887   0.744  50.746  1.00  0.00     0.057 C 
BRANCH  28  29
ATOM     29  C   UNL     1      20.059   1.441  52.103  1.00  0.00     0.088 C 
BRANCH  29  30
ATOM     30  N   UNL     1      21.106   0.860  52.953  1.00  0.00    -0.303 NA
ATOM     31  C   UNL     1      20.605   0.409  54.260  1.00  0.00     0.084 C 
ATOM     32  C   UNL     1      21.657  -0.360  52.350  1.00  0.00     0.084 C 
ATOM     33  C   UNL     1      21.672  -0.565  54.746  1.00  0.00     0.017 C 
ATOM     34  C   UNL     1      22.427  -0.992  53.495  1.00  0.00     0.017 C 
ENDBRANCH  29  30
ENDBRANCH  28  29
ENDBRANCH  27  28
ENDBRANCH   1  27
TORSDOF 8
ENDMDL
MODEL 18
REMARK VINA RESULT:    -7.151      1.925      3.619
REMARK INTER + INTRA:         -12.202
REMARK INTER:                 -10.133
REMARK INTRA:                  -2.069
REMARK UNBOUND:                -1.706
REMARK SMILES COc1cc2c(Oc3ccc4[nH]c(C)cc4c3F)ncnc2cc1OCCCN1CCCC1
REMARK SMILES IDX 25 1 24 2 3 3 4 4 5 5 23 6 6 7 22 8 19 9 21 10 20 11 2 12
REMARK SMILES IDX 1 13 7 14 8 15 9 16 17 17 10 18 16 19 11 20 15 21 12 22
REMARK SMILES IDX 13 23 18 24 14 26 26 27 27 28 28 29 29 30 30 31 33 32 31 33
REMARK SMILES IDX 32 34
REMARK H PARENT 12 25
ROOT
ATOM      1  O   UNL     1      23.326   6.412  47.411  1.00  0.00    -0.490 OA
ENDROOT
BRANCH   1   2
ATOM      2  C   UNL     1      23.129   5.362  48.272  1.00  0.00     0.163 A 
ATOM      3  C   UNL     1      23.503   5.580  49.607  1.00  0.00     0.161 A 
ATOM      4  C   UNL     1      23.321   4.556  50.536  1.00  0.00     0.066 A 
ATOM      5  C   UNL     1      22.760   3.317  50.140  1.00  0.00     0.067 A 
ATOM      6  C   UNL     1      22.561   4.138  47.901  1.00  0.00     0.079 A 
ATOM      7  C   UNL     1      22.538   2.228  50.986  1.00  0.00     0.230 A 
ATOM      8  C   UNL     1      22.374   3.109  48.814  1.00  0.00     0.081 A 
ATOM      9  N   UNL     1      22.021   1.047  50.589  1.00  0.00    -0.201 NA
ATOM     10  N   UNL     1      21.837   1.956  48.392  1.00  0.00    -0.236 NA
ATOM     11  C   UNL     1      21.683   0.982  49.301  1.00  0.00     0.226 A 
BRANCH   3  12
ATOM     12  O   UNL     1      24.047   6.806  49.894  1.00  0.00    -0.493 OA
ATOM     13  C   UNL     1      25.425   6.853  50.237  1.00  0.00     0.278 C 
ENDBRANCH   3  12
BRANCH   7  14
ATOM     14  O   UNL     1      22.950   2.354  52.311  1.00  0.00    -0.435 OA
BRANCH  14  15
ATOM     15  C   UNL     1      23.935   1.484  52.717  1.00  0.00     0.165 A 
ATOM     16  C   UNL     1      23.543   0.291  53.322  1.00  0.00     0.052 A 
ATOM     17  C   UNL     1      25.286   1.748  52.462  1.00  0.00     0.175 A 
ATOM     18  C   UNL     1      24.496  -0.655  53.721  1.00  0.00     0.031 A 
ATOM     19  C   UNL     1      26.262   0.814  52.853  1.00  0.00     0.039 A 
ATOM     20  C   UNL     1      25.845  -0.364  53.475  1.00  0.00     0.049 A 
ATOM     21  C   UNL     1      27.680   0.760  52.763  1.00  0.00     0.034 A 
ATOM     22  N   UNL     1      26.977  -1.096  53.754  1.00  0.00    -0.359 N 
ATOM     23  C   UNL     1      28.100  -0.428  53.325  1.00  0.00     0.013 A 
ATOM     24  F   UNL     1      25.646   2.876  51.829  1.00  0.00    -0.202 F 
ATOM     25  H   UNL     1      26.978  -1.997  54.212  1.00  0.00     0.166 HD
ATOM     26  C   UNL     1      29.460  -0.994  53.498  1.00  0.00     0.064 C 
ENDBRANCH  14  15
ENDBRANCH   7  14
ENDBRANCH   1   2
BRANCH   1  27
ATOM     27  C   UNL     1      22.191   7.072  46.852  1.00  0.00     0.231 C 
BRANCH  27  28
ATOM     28  C   UNL     1      21.157   7.479  47.898  1.00  0.00     0.057 C 
BRANCH  28  29
ATOM     29  C   UNL     1      19.689   7.182  47.558  1.00  0.00     0.088 C 
BRANCH  29  30
ATOM     30  N   UNL     1      19.054   6.190  48.434  1.00  0.00    -0.303 NA
ATOM     31  C   UNL     1      19.021   4.841  47.852  1.00  0.00     0.084 C 
ATOM     32  C   UNL     1      19.819   6.018  49.676  1.00  0.00     0.084 C 
ATOM     33  C   UNL     1      18.804   3.928  49.053  1.00  0.00     0.017 C 
ATOM     34  C   UNL     1      19.237   4.744  50.262  1.00  0.00     0.017 C 
ENDBRANCH  29  30
ENDBRANCH  28  29
ENDBRANCH  27  28
ENDBRANCH   1  27
TORSDOF 8
ENDMDL
MODEL 19
REMARK VINA RESULT:    -7.044      2.720      8.188
REMARK INTER + INTRA:         -12.044
REMARK INTER:                 -10.881
REMARK INTRA:                  -1.163
REMARK UNBOUND:                -1.706
REMARK SMILES COc1cc2c(Oc3ccc4[nH]c(C)cc4c3F)ncnc2cc1OCCCN1CCCC1
REMARK SMILES IDX 25 1 24 2 3 3 4 4 5 5 23 6 6 7 22 8 19 9 21 10 20 11 2 12
REMARK SMILES IDX 1 13 7 14 8 15 9 16 17 17 10 18 16 19 11 20 15 21 12 22
REMARK SMILES IDX 13 23 18 24 14 26 26 27 27 28 28 29 29 30 30 31 33 32 31 33
REMARK SMILES IDX 32 34
REMARK H PARENT 12 25
ROOT
ATOM      1  O   UNL     1      22.679   1.592  49.802  1.00  0.00    -0.490 OA
ENDROOT
BRANCH   1   2
ATOM      2  C   UNL     1      23.199   2.844  49.594  1.00  0.00     0.163 A 
ATOM      3  C   UNL     1      24.237   3.232  50.456  1.00  0.00     0.161 A 
ATOM      4  C   UNL     1      24.817   4.490  50.293  1.00  0.00     0.066 A 
ATOM      5  C   UNL     1      24.371   5.360  49.269  1.00  0.00     0.067 A 
ATOM      6  C   UNL     1      22.782   3.710  48.577  1.00  0.00     0.079 A 
ATOM      7  C   UNL     1      24.878   6.638  49.022  1.00  0.00     0.230 A 
ATOM      8  C   UNL     1      23.348   4.965  48.403  1.00  0.00     0.081 A 
ATOM      9  N   UNL     1      24.429   7.463  48.055  1.00  0.00    -0.201 NA
ATOM     10  N   UNL     1      22.895   5.752  47.418  1.00  0.00    -0.236 NA
ATOM     11  C   UNL     1      23.460   6.962  47.289  1.00  0.00     0.226 A 
BRANCH   3  12
ATOM     12  O   UNL     1      24.594   2.327  51.423  1.00  0.00    -0.493 OA
ATOM     13  C   UNL     1      25.977   2.054  51.595  1.00  0.00     0.278 C 
ENDBRANCH   3  12
BRANCH   7  14
ATOM     14  O   UNL     1      25.865   7.111  49.885  1.00  0.00    -0.435 OA
BRANCH  14  15
ATOM     15  C   UNL     1      27.056   7.464  49.297  1.00  0.00     0.165 A 
ATOM     16  C   UNL     1      27.638   6.563  48.407  1.00  0.00     0.052 A 
ATOM     17  C   UNL     1      27.630   8.723  49.520  1.00  0.00     0.175 A 
ATOM     18  C   UNL     1      28.830   6.880  47.744  1.00  0.00     0.031 A 
ATOM     19  C   UNL     1      28.827   9.065  48.866  1.00  0.00     0.039 A 
ATOM     20  C   UNL     1      29.401   8.136  47.995  1.00  0.00     0.049 A 
ATOM     21  C   UNL     1      29.665  10.213  48.863  1.00  0.00     0.034 A 
ATOM     22  N   UNL     1      30.548   8.708  47.494  1.00  0.00    -0.359 N 
ATOM     23  C   UNL     1      30.721   9.970  48.008  1.00  0.00     0.013 A 
ATOM     24  F   UNL     1      27.031   9.603  50.336  1.00  0.00    -0.202 F 
ATOM     25  H   UNL     1      31.173   8.257  46.840  1.00  0.00     0.166 HD
ATOM     26  C   UNL     1      31.880  10.815  47.632  1.00  0.00     0.064 C 
ENDBRANCH  14  15
ENDBRANCH   7  14
ENDBRANCH   1   2
BRANCH   1  27
ATOM     27  C   UNL     1      21.362   1.302  49.334  1.00  0.00     0.231 C 
BRANCH  27  28
ATOM     28  C   UNL     1      20.412   0.868  50.446  1.00  0.00     0.057 C 
BRANCH  28  29
ATOM     29  C   UNL     1      20.880   1.127  51.885  1.00  0.00     0.088 C 
BRANCH  29  30
ATOM     30  N   UNL     1      21.386  -0.064  52.580  1.00  0.00    -0.303 NA
ATOM     31  C   UNL     1      22.610   0.193  53.352  1.00  0.00     0.084 C 
ATOM     32  C   UNL     1      20.427  -0.533  53.588  1.00  0.00     0.084 C 
ATOM     33  C   UNL     1      22.669  -0.965  54.342  1.00  0.00     0.017 C 
ATOM     34  C   UNL     1      21.248  -1.503  54.417  1.00  0.00     0.017 C 
ENDBRANCH  29  30
ENDBRANCH  28  29
ENDBRANCH  27  28
ENDBRANCH   1  27
TORSDOF 8
ENDMDL
