MODEL 1
REMARK VINA RESULT:    -9.503      0.000      0.000
REMARK INTER + INTRA:         -14.123
REMARK INTER:                 -13.114
REMARK INTRA:                  -1.009
REMARK UNBOUND:                -1.009
REMARK SMILES CC(C)(C)c1nc(-c2cccc(NS(=O)(=O)c3c(F)cccc3F)c2F)c(-c2ccnc(N)n2)s1
REMARK SMILES IDX 8 1 9 2 10 3 11 4 12 5 25 6 26 7 7 8 5 9 6 10 35 11 27 12
REMARK SMILES IDX 2 13 1 14 3 15 4 16 28 17 29 18 34 19 30 20 32 21 31 22
REMARK SMILES IDX 33 23 13 26 14 28 15 29 16 30 17 31 18 32 23 33 20 34 22 35
REMARK SMILES IDX 21 36 19 37 24 38
REMARK H PARENT 33 24 33 25 13 27
ROOT
ATOM      1  C   UNL     1      25.125   2.377  51.392  1.00  0.00     0.040 A 
ATOM      2  C   UNL     1      26.067   2.040  50.410  1.00  0.00     0.013 A 
ATOM      3  C   UNL     1      26.578   3.021  49.554  1.00  0.00     0.003 A 
ATOM      4  C   UNL     1      26.167   4.349  49.683  1.00  0.00     0.030 A 
ATOM      5  C   UNL     1      25.258   4.702  50.677  1.00  0.00     0.085 A 
ATOM      6  C   UNL     1      24.736   3.713  51.519  1.00  0.00     0.156 A 
ATOM      7  F   UNL     1      23.874   4.081  52.480  1.00  0.00    -0.204 F 
ENDROOT
BRANCH   1   8
ATOM      8  C   UNL     1      24.618   1.342  52.277  1.00  0.00     0.094 A 
ATOM      9  C   UNL     1      22.972   0.178  53.218  1.00  0.00     0.099 A 
ATOM     10  N   UNL     1      23.249   1.184  52.414  1.00  0.00    -0.240 NA
ATOM     11  S   UNL     1      24.357  -0.596  53.893  1.00  0.00    -0.116 S 
ATOM     12  C   UNL     1      25.393   0.486  53.046  1.00  0.00     0.081 A 
BRANCH   9  13
ATOM     13  C   UNL     1      21.552  -0.269  53.565  1.00  0.00     0.014 C 
ATOM     14  C   UNL     1      20.635  -0.110  52.340  1.00  0.00     0.018 C 
ATOM     15  C   UNL     1      21.558  -1.761  53.969  1.00  0.00     0.018 C 
ATOM     16  C   UNL     1      20.984   0.536  54.750  1.00  0.00     0.018 C 
ENDBRANCH   9  13
BRANCH  12  17
ATOM     17  C   UNL     1      26.839   0.395  53.248  1.00  0.00     0.088 A 
ATOM     18  C   UNL     1      27.540  -0.758  52.969  1.00  0.00     0.050 A 
ATOM     19  N   UNL     1      27.423   1.510  53.731  1.00  0.00    -0.212 NA
ATOM     20  C   UNL     1      28.887  -0.706  53.232  1.00  0.00     0.117 A 
ATOM     21  C   UNL     1      28.740   1.458  53.933  1.00  0.00     0.220 A 
ATOM     22  N   UNL     1      29.504   0.382  53.722  1.00  0.00    -0.222 NA
BRANCH  21  23
ATOM     23  N   UNL     1      29.350   2.586  54.444  1.00  0.00    -0.368 N 
ATOM     24  H   UNL     1      28.984   3.409  53.981  1.00  0.00     0.159 HD
ATOM     25  H   UNL     1      29.311   2.570  55.456  1.00  0.00     0.159 HD
ENDBRANCH  21  23
ENDBRANCH  12  17
ENDBRANCH   1   8
BRANCH   5  26
ATOM     26  N   UNL     1      24.863   6.063  50.877  1.00  0.00    -0.276 N 
ATOM     27  H   UNL     1      25.624   6.724  51.050  1.00  0.00     0.180 HD
BRANCH  26  28
ATOM     28  S   UNL     1      23.739   6.741  49.799  1.00  0.00     0.267 S 
ATOM     29  O   UNL     1      24.379   6.781  48.502  1.00  0.00    -0.201 OA
ATOM     30  O   UNL     1      23.226   7.954  50.398  1.00  0.00    -0.201 OA
BRANCH  28  31
ATOM     31  C   UNL     1      22.465   5.541  49.714  1.00  0.00     0.158 A 
ATOM     32  C   UNL     1      22.367   4.654  48.653  1.00  0.00     0.146 A 
ATOM     33  C   UNL     1      21.536   5.482  50.747  1.00  0.00     0.146 A 
ATOM     34  C   UNL     1      21.336   3.714  48.617  1.00  0.00     0.041 A 
ATOM     35  C   UNL     1      20.501   4.548  50.722  1.00  0.00     0.041 A 
ATOM     36  C   UNL     1      20.400   3.659  49.652  1.00  0.00     0.006 A 
ATOM     37  F   UNL     1      23.233   4.669  47.633  1.00  0.00    -0.205 F 
ATOM     38  F   UNL     1      21.593   6.346  51.772  1.00  0.00    -0.205 F 
ENDBRANCH  28  31
ENDBRANCH  26  28
ENDBRANCH   5  26
TORSDOF 7
ENDMDL
MODEL 2
REMARK VINA RESULT:    -9.383      2.017      3.015
REMARK INTER + INTRA:         -13.958
REMARK INTER:                 -13.265
REMARK INTRA:                  -0.693
REMARK UNBOUND:                -1.009
REMARK SMILES CC(C)(C)c1nc(-c2cccc(NS(=O)(=O)c3c(F)cccc3F)c2F)c(-c2ccnc(N)n2)s1
REMARK SMILES IDX 8 1 9 2 10 3 11 4 12 5 25 6 26 7 7 8 5 9 6 10 35 11 27 12
REMARK SMILES IDX 2 13 1 14 3 15 4 16 28 17 29 18 34 19 30 20 32 21 31 22
REMARK SMILES IDX 33 23 13 26 14 28 15 29 16 30 17 31 18 32 23 33 20 34 22 35
REMARK SMILES IDX 21 36 19 37 24 38
REMARK H PARENT 33 24 33 25 13 27
ROOT
ATOM      1  C   UNL     1      25.121   2.278  51.533  1.00  0.00     0.040 A 
ATOM      2  C   UNL     1      26.062   1.956  50.547  1.00  0.00     0.013 A 
ATOM      3  C   UNL     1      26.561   2.948  49.696  1.00  0.00     0.003 A 
ATOM      4  C   UNL     1      26.138   4.272  49.835  1.00  0.00     0.030 A 
ATOM      5  C   UNL     1      25.229   4.609  50.834  1.00  0.00     0.085 A 
ATOM      6  C   UNL     1      24.719   3.609  51.671  1.00  0.00     0.156 A 
ATOM      7  F   UNL     1      23.856   3.963  52.637  1.00  0.00    -0.204 F 
ENDROOT
BRANCH   1   8
ATOM      8  C   UNL     1      24.626   1.232  52.413  1.00  0.00     0.094 A 
ATOM      9  C   UNL     1      22.994   0.046  53.350  1.00  0.00     0.099 A 
ATOM     10  N   UNL     1      23.259   1.060  52.552  1.00  0.00    -0.240 NA
ATOM     11  S   UNL     1      24.388  -0.718  54.018  1.00  0.00    -0.116 S 
ATOM     12  C   UNL     1      25.411   0.380  53.175  1.00  0.00     0.081 A 
BRANCH   9  13
ATOM     13  C   UNL     1      21.579  -0.418  53.698  1.00  0.00     0.014 C 
ATOM     14  C   UNL     1      21.614  -1.861  54.230  1.00  0.00     0.018 C 
ATOM     15  C   UNL     1      20.990   0.487  54.804  1.00  0.00     0.018 C 
ATOM     16  C   UNL     1      20.644  -0.334  52.477  1.00  0.00     0.018 C 
ENDBRANCH   9  13
BRANCH  12  17
ATOM     17  C   UNL     1      26.858   0.302  53.374  1.00  0.00     0.088 A 
ATOM     18  C   UNL     1      27.579  -0.823  53.034  1.00  0.00     0.050 A 
ATOM     19  N   UNL     1      27.424   1.400  53.915  1.00  0.00    -0.212 NA
ATOM     20  C   UNL     1      28.925  -0.762  53.300  1.00  0.00     0.117 A 
ATOM     21  C   UNL     1      28.742   1.359  54.116  1.00  0.00     0.220 A 
ATOM     22  N   UNL     1      29.523   0.309  53.848  1.00  0.00    -0.222 NA
BRANCH  21  23
ATOM     23  N   UNL     1      29.332   2.468  54.686  1.00  0.00    -0.368 N 
ATOM     24  H   UNL     1      30.125   2.756  54.125  1.00  0.00     0.159 HD
ATOM     25  H   UNL     1      28.628   3.169  54.884  1.00  0.00     0.159 HD
ENDBRANCH  21  23
ENDBRANCH  12  17
ENDBRANCH   1   8
BRANCH   5  26
ATOM     26  N   UNL     1      24.821   5.965  51.044  1.00  0.00    -0.276 N 
ATOM     27  H   UNL     1      25.572   6.624  51.264  1.00  0.00     0.180 HD
BRANCH  26  28
ATOM     28  S   UNL     1      23.742   6.662  49.933  1.00  0.00     0.267 S 
ATOM     29  O   UNL     1      23.070   7.739  50.627  1.00  0.00    -0.201 OA
ATOM     30  O   UNL     1      22.977   5.593  49.328  1.00  0.00    -0.201 OA
BRANCH  28  31
ATOM     31  C   UNL     1      24.791   7.389  48.732  1.00  0.00     0.158 A 
ATOM     32  C   UNL     1      26.029   7.915  49.068  1.00  0.00     0.146 A 
ATOM     33  C   UNL     1      24.362   7.431  47.411  1.00  0.00     0.146 A 
ATOM     34  C   UNL     1      26.836   8.491  48.085  1.00  0.00     0.041 A 
ATOM     35  C   UNL     1      25.158   8.005  46.420  1.00  0.00     0.041 A 
ATOM     36  C   UNL     1      26.402   8.537  46.758  1.00  0.00     0.006 A 
ATOM     37  F   UNL     1      26.489   7.902  50.324  1.00  0.00    -0.205 F 
ATOM     38  F   UNL     1      23.157   6.953  47.065  1.00  0.00    -0.205 F 
ENDBRANCH  28  31
ENDBRANCH  26  28
ENDBRANCH   5  26
TORSDOF 7
ENDMDL
MODEL 3
REMARK VINA RESULT:    -9.298      2.046      2.733
REMARK INTER + INTRA:         -13.840
REMARK INTER:                 -13.153
REMARK INTRA:                  -0.687
REMARK UNBOUND:                -1.009
REMARK SMILES CC(C)(C)c1nc(-c2cccc(NS(=O)(=O)c3c(F)cccc3F)c2F)c(-c2ccnc(N)n2)s1
REMARK SMILES IDX 8 1 9 2 10 3 11 4 12 5 25 6 26 7 7 8 5 9 6 10 35 11 27 12
REMARK SMILES IDX 2 13 1 14 3 15 4 16 28 17 29 18 34 19 30 20 32 21 31 22
REMARK SMILES IDX 33 23 13 26 14 28 15 29 16 30 17 31 18 32 23 33 20 34 22 35
REMARK SMILES IDX 21 36 19 37 24 38
REMARK H PARENT 33 24 33 25 13 27
ROOT
ATOM      1  C   UNL     1      25.029   2.396  51.460  1.00  0.00     0.040 A 
ATOM      2  C   UNL     1      25.987   2.095  50.482  1.00  0.00     0.013 A 
ATOM      3  C   UNL     1      26.477   3.099  49.641  1.00  0.00     0.003 A 
ATOM      4  C   UNL     1      26.028   4.414  49.780  1.00  0.00     0.030 A 
ATOM      5  C   UNL     1      25.102   4.731  50.770  1.00  0.00     0.085 A 
ATOM      6  C   UNL     1      24.601   3.719  51.597  1.00  0.00     0.156 A 
ATOM      7  F   UNL     1      23.721   4.053  52.555  1.00  0.00    -0.204 F 
ENDROOT
BRANCH   1   8
ATOM      8  C   UNL     1      24.544   1.337  52.330  1.00  0.00     0.094 A 
ATOM      9  C   UNL     1      22.922   0.135  53.265  1.00  0.00     0.099 A 
ATOM     10  N   UNL     1      23.178   1.160  52.478  1.00  0.00    -0.240 NA
ATOM     11  S   UNL     1      24.323  -0.634  53.911  1.00  0.00    -0.116 S 
ATOM     12  C   UNL     1      25.337   0.477  53.074  1.00  0.00     0.081 A 
BRANCH   9  13
ATOM     13  C   UNL     1      21.511  -0.336  53.619  1.00  0.00     0.014 C 
ATOM     14  C   UNL     1      21.547  -1.801  54.090  1.00  0.00     0.018 C 
ATOM     15  C   UNL     1      20.947   0.525  54.773  1.00  0.00     0.018 C 
ATOM     16  C   UNL     1      20.554  -0.196  52.419  1.00  0.00     0.018 C 
ENDBRANCH   9  13
BRANCH  12  17
ATOM     17  C   UNL     1      26.786   0.400  53.260  1.00  0.00     0.088 A 
ATOM     18  C   UNL     1      27.492  -0.755  52.996  1.00  0.00     0.050 A 
ATOM     19  N   UNL     1      27.368   1.529  53.711  1.00  0.00    -0.212 NA
ATOM     20  C   UNL     1      28.841  -0.688  53.240  1.00  0.00     0.117 A 
ATOM     21  C   UNL     1      28.688   1.491  53.897  1.00  0.00     0.220 A 
ATOM     22  N   UNL     1      29.457   0.415  53.699  1.00  0.00    -0.222 NA
BRANCH  21  23
ATOM     23  N   UNL     1      29.297   2.633  54.374  1.00  0.00    -0.368 N 
ATOM     24  H   UNL     1      29.343   3.326  53.638  1.00  0.00     0.159 HD
ATOM     25  H   UNL     1      28.864   2.914  55.246  1.00  0.00     0.159 HD
ENDBRANCH  21  23
ENDBRANCH  12  17
ENDBRANCH   1   8
BRANCH   5  26
ATOM     26  N   UNL     1      24.666   6.078  50.980  1.00  0.00    -0.276 N 
ATOM     27  H   UNL     1      25.410   6.776  51.063  1.00  0.00     0.180 HD
BRANCH  26  28
ATOM     28  S   UNL     1      23.411   6.680  50.007  1.00  0.00     0.267 S 
ATOM     29  O   UNL     1      22.693   7.647  50.807  1.00  0.00    -0.201 OA
ATOM     30  O   UNL     1      22.717   5.548  49.431  1.00  0.00    -0.201 OA
BRANCH  28  31
ATOM     31  C   UNL     1      24.247   7.563  48.746  1.00  0.00     0.158 A 
ATOM     32  C   UNL     1      24.079   7.254  47.404  1.00  0.00     0.146 A 
ATOM     33  C   UNL     1      25.095   8.602  49.110  1.00  0.00     0.146 A 
ATOM     34  C   UNL     1      24.765   7.977  46.427  1.00  0.00     0.041 A 
ATOM     35  C   UNL     1      25.787   9.331  48.143  1.00  0.00     0.041 A 
ATOM     36  C   UNL     1      25.621   9.017  46.795  1.00  0.00     0.006 A 
ATOM     37  F   UNL     1      23.277   6.263  46.999  1.00  0.00    -0.205 F 
ATOM     38  F   UNL     1      25.295   8.904  50.402  1.00  0.00    -0.205 F 
ENDBRANCH  28  31
ENDBRANCH  26  28
ENDBRANCH   5  26
TORSDOF 7
ENDMDL
MODEL 4
REMARK VINA RESULT:    -9.099      0.585      1.783
REMARK INTER + INTRA:         -13.565
REMARK INTER:                 -12.617
REMARK INTRA:                  -0.949
REMARK UNBOUND:                -1.009
REMARK SMILES CC(C)(C)c1nc(-c2cccc(NS(=O)(=O)c3c(F)cccc3F)c2F)c(-c2ccnc(N)n2)s1
REMARK SMILES IDX 8 1 9 2 10 3 11 4 12 5 25 6 26 7 7 8 5 9 6 10 35 11 27 12
REMARK SMILES IDX 2 13 1 14 3 15 4 16 28 17 29 18 34 19 30 20 32 21 31 22
REMARK SMILES IDX 33 23 13 26 14 28 15 29 16 30 17 31 18 32 23 33 20 34 22 35
REMARK SMILES IDX 21 36 19 37 24 38
REMARK H PARENT 33 24 33 25 13 27
ROOT
ATOM      1  C   UNL     1      25.096   2.479  51.407  1.00  0.00     0.040 A 
ATOM      2  C   UNL     1      26.043   2.154  50.427  1.00  0.00     0.013 A 
ATOM      3  C   UNL     1      26.537   3.141  49.567  1.00  0.00     0.003 A 
ATOM      4  C   UNL     1      26.103   4.462  49.691  1.00  0.00     0.030 A 
ATOM      5  C   UNL     1      25.189   4.803  50.684  1.00  0.00     0.085 A 
ATOM      6  C   UNL     1      24.683   3.809  51.529  1.00  0.00     0.156 A 
ATOM      7  F   UNL     1      23.815   4.166  52.489  1.00  0.00    -0.204 F 
ENDROOT
BRANCH   1   8
ATOM      8  C   UNL     1      24.606   1.439  52.297  1.00  0.00     0.094 A 
ATOM      9  C   UNL     1      22.985   0.210  53.196  1.00  0.00     0.099 A 
ATOM     10  N   UNL     1      23.243   1.211  52.379  1.00  0.00    -0.240 NA
ATOM     11  S   UNL     1      24.378  -0.472  53.949  1.00  0.00    -0.116 S 
ATOM     12  C   UNL     1      25.391   0.645  53.119  1.00  0.00     0.081 A 
BRANCH   9  13
ATOM     13  C   UNL     1      21.576  -0.305  53.495  1.00  0.00     0.014 C 
ATOM     14  C   UNL     1      20.698  -0.198  52.235  1.00  0.00     0.018 C 
ATOM     15  C   UNL     1      21.641  -1.793  53.909  1.00  0.00     0.018 C 
ATOM     16  C   UNL     1      20.926   0.476  54.653  1.00  0.00     0.018 C 
ENDBRANCH   9  13
BRANCH  12  17
ATOM     17  C   UNL     1      26.829   0.637  53.385  1.00  0.00     0.088 A 
ATOM     18  C   UNL     1      27.524   1.796  53.662  1.00  0.00     0.050 A 
ATOM     19  N   UNL     1      27.417  -0.575  53.330  1.00  0.00    -0.212 NA
ATOM     20  C   UNL     1      28.872   1.639  53.865  1.00  0.00     0.117 A 
ATOM     21  C   UNL     1      28.730  -0.616  53.562  1.00  0.00     0.220 A 
ATOM     22  N   UNL     1      29.496   0.450  53.809  1.00  0.00    -0.222 NA
BRANCH  21  23
ATOM     23  N   UNL     1      29.349  -1.847  53.492  1.00  0.00    -0.368 N 
ATOM     24  H   UNL     1      30.243  -1.805  53.965  1.00  0.00     0.159 HD
ATOM     25  H   UNL     1      28.706  -2.573  53.785  1.00  0.00     0.159 HD
ENDBRANCH  21  23
ENDBRANCH  12  17
ENDBRANCH   1   8
BRANCH   5  26
ATOM     26  N   UNL     1      24.770   6.159  50.878  1.00  0.00    -0.276 N 
ATOM     27  H   UNL     1      25.519   6.833  51.049  1.00  0.00     0.180 HD
BRANCH  26  28
ATOM     28  S   UNL     1      23.634   6.812  49.798  1.00  0.00     0.267 S 
ATOM     29  O   UNL     1      24.263   6.830  48.495  1.00  0.00    -0.201 OA
ATOM     30  O   UNL     1      23.122   8.035  50.379  1.00  0.00    -0.201 OA
BRANCH  28  31
ATOM     31  C   UNL     1      22.364   5.607  49.747  1.00  0.00     0.158 A 
ATOM     32  C   UNL     1      21.423   5.495  50.759  1.00  0.00     0.146 A 
ATOM     33  C   UNL     1      22.303   4.749  48.655  1.00  0.00     0.146 A 
ATOM     34  C   UNL     1      20.427   4.519  50.687  1.00  0.00     0.041 A 
ATOM     35  C   UNL     1      21.314   3.769  48.573  1.00  0.00     0.041 A 
ATOM     36  C   UNL     1      20.371   3.653  49.593  1.00  0.00     0.006 A 
ATOM     37  F   UNL     1      21.436   6.295  51.832  1.00  0.00    -0.205 F 
ATOM     38  F   UNL     1      23.217   4.819  47.676  1.00  0.00    -0.205 F 
ENDBRANCH  28  31
ENDBRANCH  26  28
ENDBRANCH   5  26
TORSDOF 7
ENDMDL
MODEL 5
REMARK VINA RESULT:    -8.923      2.682      3.803
REMARK INTER + INTRA:         -13.323
REMARK INTER:                 -12.931
REMARK INTRA:                  -0.392
REMARK UNBOUND:                -1.009
REMARK SMILES CC(C)(C)c1nc(-c2cccc(NS(=O)(=O)c3c(F)cccc3F)c2F)c(-c2ccnc(N)n2)s1
REMARK SMILES IDX 8 1 9 2 10 3 11 4 12 5 25 6 26 7 7 8 5 9 6 10 35 11 27 12
REMARK SMILES IDX 2 13 1 14 3 15 4 16 28 17 29 18 34 19 30 20 32 21 31 22
REMARK SMILES IDX 33 23 13 26 14 28 15 29 16 30 17 31 18 32 23 33 20 34 22 35
REMARK SMILES IDX 21 36 19 37 24 38
REMARK H PARENT 33 24 33 25 13 27
ROOT
ATOM      1  C   UNL     1      25.075   3.169  50.862  1.00  0.00     0.040 A 
ATOM      2  C   UNL     1      26.072   2.701  49.996  1.00  0.00     0.013 A 
ATOM      3  C   UNL     1      26.801   3.597  49.208  1.00  0.00     0.003 A 
ATOM      4  C   UNL     1      26.553   4.969  49.291  1.00  0.00     0.030 A 
ATOM      5  C   UNL     1      25.589   5.448  50.173  1.00  0.00     0.085 A 
ATOM      6  C   UNL     1      24.849   4.545  50.947  1.00  0.00     0.156 A 
ATOM      7  F   UNL     1      23.937   5.034  51.802  1.00  0.00    -0.204 F 
ENDROOT
BRANCH   1   8
ATOM      8  C   UNL     1      24.339   2.219  51.681  1.00  0.00     0.094 A 
ATOM      9  C   UNL     1      22.458   1.326  52.463  1.00  0.00     0.099 A 
ATOM     10  N   UNL     1      22.956   2.284  51.708  1.00  0.00    -0.240 NA
ATOM     11  S   UNL     1      23.642   0.330  53.224  1.00  0.00    -0.116 S 
ATOM     12  C   UNL     1      24.903   1.240  52.485  1.00  0.00     0.081 A 
BRANCH   9  13
ATOM     13  C   UNL     1      20.961   1.112  52.690  1.00  0.00     0.014 C 
ATOM     14  C   UNL     1      20.216   2.454  52.594  1.00  0.00     0.018 C 
ATOM     15  C   UNL     1      20.398   0.171  51.601  1.00  0.00     0.018 C 
ATOM     16  C   UNL     1      20.688   0.460  54.060  1.00  0.00     0.018 C 
ENDBRANCH   9  13
BRANCH  12  17
ATOM     17  C   UNL     1      26.295   0.913  52.796  1.00  0.00     0.088 A 
ATOM     18  C   UNL     1      26.814  -0.343  52.568  1.00  0.00     0.050 A 
ATOM     19  N   UNL     1      27.018   1.922  53.322  1.00  0.00    -0.212 NA
ATOM     20  C   UNL     1      28.127  -0.511  52.931  1.00  0.00     0.117 A 
ATOM     21  C   UNL     1      28.290   1.655  53.622  1.00  0.00     0.220 A 
ATOM     22  N   UNL     1      28.878   0.465  53.468  1.00  0.00    -0.222 NA
BRANCH  21  23
ATOM     23  N   UNL     1      29.038   2.672  54.178  1.00  0.00    -0.368 N 
ATOM     24  H   UNL     1      30.022   2.446  54.110  1.00  0.00     0.159 HD
ATOM     25  H   UNL     1      28.742   3.564  53.800  1.00  0.00     0.159 HD
ENDBRANCH  21  23
ENDBRANCH  12  17
ENDBRANCH   1   8
BRANCH   5  26
ATOM     26  N   UNL     1      25.352   6.852  50.328  1.00  0.00    -0.276 N 
ATOM     27  H   UNL     1      26.026   7.352  50.913  1.00  0.00     0.180 HD
BRANCH  26  28
ATOM     28  S   UNL     1      24.993   7.765  48.942  1.00  0.00     0.267 S 
ATOM     29  O   UNL     1      24.265   8.932  49.392  1.00  0.00    -0.201 OA
ATOM     30  O   UNL     1      24.410   6.873  47.963  1.00  0.00    -0.201 OA
BRANCH  28  31
ATOM     31  C   UNL     1      26.561   8.312  48.384  1.00  0.00     0.158 A 
ATOM     32  C   UNL     1      26.904   8.292  47.041  1.00  0.00     0.146 A 
ATOM     33  C   UNL     1      27.475   8.780  49.320  1.00  0.00     0.146 A 
ATOM     34  C   UNL     1      28.165   8.732  46.633  1.00  0.00     0.041 A 
ATOM     35  C   UNL     1      28.738   9.220  48.926  1.00  0.00     0.041 A 
ATOM     36  C   UNL     1      29.085   9.196  47.576  1.00  0.00     0.006 A 
ATOM     37  F   UNL     1      26.063   7.851  46.099  1.00  0.00    -0.205 F 
ATOM     38  F   UNL     1      27.176   8.784  50.628  1.00  0.00    -0.205 F 
ENDBRANCH  28  31
ENDBRANCH  26  28
ENDBRANCH   5  26
TORSDOF 7
ENDMDL
MODEL 6
REMARK VINA RESULT:    -8.834      1.719      2.173
REMARK INTER + INTRA:         -13.200
REMARK INTER:                 -13.254
REMARK INTRA:                   0.055
REMARK UNBOUND:                -1.009
REMARK SMILES CC(C)(C)c1nc(-c2cccc(NS(=O)(=O)c3c(F)cccc3F)c2F)c(-c2ccnc(N)n2)s1
REMARK SMILES IDX 8 1 9 2 10 3 11 4 12 5 25 6 26 7 7 8 5 9 6 10 35 11 27 12
REMARK SMILES IDX 2 13 1 14 3 15 4 16 28 17 29 18 34 19 30 20 32 21 31 22
REMARK SMILES IDX 33 23 13 26 14 28 15 29 16 30 17 31 18 32 23 33 20 34 22 35
REMARK SMILES IDX 21 36 19 37 24 38
REMARK H PARENT 33 24 33 25 13 27
ROOT
ATOM      1  C   UNL     1      25.062   2.134  51.353  1.00  0.00     0.040 A 
ATOM      2  C   UNL     1      26.371   2.021  50.867  1.00  0.00     0.013 A 
ATOM      3  C   UNL     1      26.872   2.959  49.959  1.00  0.00     0.003 A 
ATOM      4  C   UNL     1      26.075   4.028  49.542  1.00  0.00     0.030 A 
ATOM      5  C   UNL     1      24.784   4.170  50.044  1.00  0.00     0.085 A 
ATOM      6  C   UNL     1      24.282   3.218  50.939  1.00  0.00     0.156 A 
ATOM      7  F   UNL     1      23.041   3.386  51.422  1.00  0.00    -0.204 F 
ENDROOT
BRANCH   1   8
ATOM      8  C   UNL     1      24.569   1.154  52.306  1.00  0.00     0.094 A 
ATOM      9  C   UNL     1      22.939   0.031  53.321  1.00  0.00     0.099 A 
ATOM     10  N   UNL     1      23.202   0.985  52.452  1.00  0.00    -0.240 NA
ATOM     11  S   UNL     1      24.334  -0.675  54.049  1.00  0.00    -0.116 S 
ATOM     12  C   UNL     1      25.355   0.364  53.132  1.00  0.00     0.081 A 
BRANCH   9  13
ATOM     13  C   UNL     1      21.525  -0.414  53.697  1.00  0.00     0.014 C 
ATOM     14  C   UNL     1      20.994   0.446  54.858  1.00  0.00     0.018 C 
ATOM     15  C   UNL     1      20.579  -0.224  52.489  1.00  0.00     0.018 C 
ATOM     16  C   UNL     1      21.490  -1.903  54.091  1.00  0.00     0.018 C 
ENDBRANCH   9  13
BRANCH  12  17
ATOM     17  C   UNL     1      26.802   0.309  53.341  1.00  0.00     0.088 A 
ATOM     18  C   UNL     1      27.541  -0.809  53.018  1.00  0.00     0.050 A 
ATOM     19  N   UNL     1      27.348   1.420  53.875  1.00  0.00    -0.212 NA
ATOM     20  C   UNL     1      28.883  -0.727  53.293  1.00  0.00     0.117 A 
ATOM     21  C   UNL     1      28.664   1.400  54.085  1.00  0.00     0.220 A 
ATOM     22  N   UNL     1      29.463   0.358  53.834  1.00  0.00    -0.222 NA
BRANCH  21  23
ATOM     23  N   UNL     1      29.235   2.523  54.648  1.00  0.00    -0.368 N 
ATOM     24  H   UNL     1      28.986   3.340  54.103  1.00  0.00     0.159 HD
ATOM     25  H   UNL     1      29.034   2.551  55.640  1.00  0.00     0.159 HD
ENDBRANCH  21  23
ENDBRANCH  12  17
ENDBRANCH   1   8
BRANCH   5  26
ATOM     26  N   UNL     1      23.963   5.287  49.686  1.00  0.00    -0.276 N 
ATOM     27  H   UNL     1      22.960   5.097  49.628  1.00  0.00     0.180 HD
BRANCH  26  28
ATOM     28  S   UNL     1      24.231   6.768  50.473  1.00  0.00     0.267 S 
ATOM     29  O   UNL     1      25.397   7.361  49.855  1.00  0.00    -0.201 OA
ATOM     30  O   UNL     1      24.205   6.523  51.899  1.00  0.00    -0.201 OA
BRANCH  28  31
ATOM     31  C   UNL     1      22.847   7.740  50.016  1.00  0.00     0.158 A 
ATOM     32  C   UNL     1      22.971   8.840  49.181  1.00  0.00     0.146 A 
ATOM     33  C   UNL     1      21.595   7.387  50.505  1.00  0.00     0.146 A 
ATOM     34  C   UNL     1      21.846   9.594  48.842  1.00  0.00     0.041 A 
ATOM     35  C   UNL     1      20.464   8.133  50.175  1.00  0.00     0.041 A 
ATOM     36  C   UNL     1      20.590   9.242  49.339  1.00  0.00     0.006 A 
ATOM     37  F   UNL     1      24.153   9.224  48.684  1.00  0.00    -0.205 F 
ATOM     38  F   UNL     1      21.451   6.343  51.335  1.00  0.00    -0.205 F 
ENDBRANCH  28  31
ENDBRANCH  26  28
ENDBRANCH   5  26
TORSDOF 7
ENDMDL
MODEL 7
REMARK VINA RESULT:    -8.824      3.416      7.778
REMARK INTER + INTRA:         -13.187
REMARK INTER:                 -12.974
REMARK INTRA:                  -0.213
REMARK UNBOUND:                -1.009
REMARK SMILES CC(C)(C)c1nc(-c2cccc(NS(=O)(=O)c3c(F)cccc3F)c2F)c(-c2ccnc(N)n2)s1
REMARK SMILES IDX 8 1 9 2 10 3 11 4 12 5 25 6 26 7 7 8 5 9 6 10 35 11 27 12
REMARK SMILES IDX 2 13 1 14 3 15 4 16 28 17 29 18 34 19 30 20 32 21 31 22
REMARK SMILES IDX 33 23 13 26 14 28 15 29 16 30 17 31 18 32 23 33 20 34 22 35
REMARK SMILES IDX 21 36 19 37 24 38
REMARK H PARENT 33 24 33 25 13 27
ROOT
ATOM      1  C   UNL     1      23.673   4.170  50.592  1.00  0.00     0.040 A 
ATOM      2  C   UNL     1      23.132   4.632  51.799  1.00  0.00     0.013 A 
ATOM      3  C   UNL     1      23.557   4.091  53.017  1.00  0.00     0.003 A 
ATOM      4  C   UNL     1      24.538   3.096  53.040  1.00  0.00     0.030 A 
ATOM      5  C   UNL     1      25.107   2.654  51.849  1.00  0.00     0.085 A 
ATOM      6  C   UNL     1      24.665   3.187  50.632  1.00  0.00     0.156 A 
ATOM      7  F   UNL     1      25.241   2.755  49.498  1.00  0.00    -0.204 F 
ENDROOT
BRANCH   1   8
ATOM      8  C   UNL     1      23.224   4.757  49.340  1.00  0.00     0.094 A 
ATOM      9  C   UNL     1      21.938   4.798  47.525  1.00  0.00     0.099 A 
ATOM     10  N   UNL     1      22.252   4.105  48.601  1.00  0.00    -0.240 NA
ATOM     11  S   UNL     1      22.845   6.250  47.324  1.00  0.00    -0.116 S 
ATOM     12  C   UNL     1      23.708   5.930  48.779  1.00  0.00     0.081 A 
BRANCH   9  13
ATOM     13  C   UNL     1      20.886   4.360  46.506  1.00  0.00     0.014 C 
ATOM     14  C   UNL     1      20.067   3.184  47.067  1.00  0.00     0.018 C 
ATOM     15  C   UNL     1      19.915   5.529  46.224  1.00  0.00     0.018 C 
ATOM     16  C   UNL     1      21.533   3.955  45.168  1.00  0.00     0.018 C 
ENDBRANCH   9  13
BRANCH  12  17
ATOM     17  C   UNL     1      24.775   6.842  49.192  1.00  0.00     0.088 A 
ATOM     18  C   UNL     1      24.506   8.023  49.850  1.00  0.00     0.050 A 
ATOM     19  N   UNL     1      26.024   6.446  48.874  1.00  0.00    -0.212 NA
ATOM     20  C   UNL     1      25.604   8.790  50.153  1.00  0.00     0.117 A 
ATOM     21  C   UNL     1      27.019   7.259  49.231  1.00  0.00     0.220 A 
ATOM     22  N   UNL     1      26.863   8.436  49.845  1.00  0.00    -0.222 NA
BRANCH  21  23
ATOM     23  N   UNL     1      28.303   6.876  48.898  1.00  0.00    -0.368 N 
ATOM     24  H   UNL     1      28.403   6.867  47.891  1.00  0.00     0.159 HD
ATOM     25  H   UNL     1      28.972   7.425  49.424  1.00  0.00     0.159 HD
ENDBRANCH  21  23
ENDBRANCH  12  17
ENDBRANCH   1   8
BRANCH   5  26
ATOM     26  N   UNL     1      26.157   1.681  51.840  1.00  0.00    -0.276 N 
ATOM     27  H   UNL     1      26.648   1.568  50.950  1.00  0.00     0.180 HD
BRANCH  26  28
ATOM     28  S   UNL     1      27.271   1.689  53.122  1.00  0.00     0.267 S 
ATOM     29  O   UNL     1      26.506   1.874  54.336  1.00  0.00    -0.201 OA
ATOM     30  O   UNL     1      28.334   2.610  52.780  1.00  0.00    -0.201 OA
BRANCH  28  31
ATOM     31  C   UNL     1      27.895   0.052  53.143  1.00  0.00     0.158 A 
ATOM     32  C   UNL     1      27.110  -1.033  52.782  1.00  0.00     0.146 A 
ATOM     33  C   UNL     1      29.214  -0.154  53.528  1.00  0.00     0.146 A 
ATOM     34  C   UNL     1      27.639  -2.324  52.815  1.00  0.00     0.041 A 
ATOM     35  C   UNL     1      29.754  -1.439  53.567  1.00  0.00     0.041 A 
ATOM     36  C   UNL     1      28.963  -2.530  53.208  1.00  0.00     0.006 A 
ATOM     37  F   UNL     1      25.834  -0.891  52.404  1.00  0.00    -0.205 F 
ATOM     38  F   UNL     1      29.986   0.876  53.908  1.00  0.00    -0.205 F 
ENDBRANCH  28  31
ENDBRANCH  26  28
ENDBRANCH   5  26
TORSDOF 7
ENDMDL
MODEL 8
REMARK VINA RESULT:    -8.801      3.529      8.741
REMARK INTER + INTRA:         -13.155
REMARK INTER:                 -12.565
REMARK INTRA:                  -0.590
REMARK UNBOUND:                -1.009
REMARK SMILES CC(C)(C)c1nc(-c2cccc(NS(=O)(=O)c3c(F)cccc3F)c2F)c(-c2ccnc(N)n2)s1
REMARK SMILES IDX 8 1 9 2 10 3 11 4 12 5 25 6 26 7 7 8 5 9 6 10 35 11 27 12
REMARK SMILES IDX 2 13 1 14 3 15 4 16 28 17 29 18 34 19 30 20 32 21 31 22
REMARK SMILES IDX 33 23 13 26 14 28 15 29 16 30 17 31 18 32 23 33 20 34 22 35
REMARK SMILES IDX 21 36 19 37 24 38
REMARK H PARENT 33 24 33 25 13 27
ROOT
ATOM      1  C   UNL     1      24.329   4.445  50.773  1.00  0.00     0.040 A 
ATOM      2  C   UNL     1      23.295   4.685  51.688  1.00  0.00     0.013 A 
ATOM      3  C   UNL     1      23.074   3.805  52.752  1.00  0.00     0.003 A 
ATOM      4  C   UNL     1      23.895   2.688  52.923  1.00  0.00     0.030 A 
ATOM      5  C   UNL     1      24.947   2.458  52.041  1.00  0.00     0.085 A 
ATOM      6  C   UNL     1      25.152   3.332  50.966  1.00  0.00     0.156 A 
ATOM      7  F   UNL     1      26.183   3.097  50.139  1.00  0.00    -0.204 F 
ENDROOT
BRANCH   1   8
ATOM      8  C   UNL     1      24.546   5.380  49.682  1.00  0.00     0.094 A 
ATOM      9  C   UNL     1      25.800   6.801  48.518  1.00  0.00     0.099 A 
ATOM     10  N   UNL     1      25.766   6.029  49.584  1.00  0.00    -0.240 NA
ATOM     11  S   UNL     1      24.336   6.824  47.607  1.00  0.00    -0.116 S 
ATOM     12  C   UNL     1      23.614   5.721  48.713  1.00  0.00     0.081 A 
BRANCH   9  13
ATOM     13  C   UNL     1      27.012   7.642  48.113  1.00  0.00     0.014 C 
ATOM     14  C   UNL     1      26.724   8.379  46.793  1.00  0.00     0.018 C 
ATOM     15  C   UNL     1      27.298   8.703  49.201  1.00  0.00     0.018 C 
ATOM     16  C   UNL     1      28.275   6.773  47.963  1.00  0.00     0.018 C 
ENDBRANCH   9  13
BRANCH  12  17
ATOM     17  C   UNL     1      22.215   5.336  48.526  1.00  0.00     0.088 A 
ATOM     18  C   UNL     1      21.863   4.178  47.866  1.00  0.00     0.050 A 
ATOM     19  N   UNL     1      21.309   6.195  49.035  1.00  0.00    -0.212 NA
ATOM     20  C   UNL     1      20.513   3.958  47.744  1.00  0.00     0.117 A 
ATOM     21  C   UNL     1      20.024   5.876  48.875  1.00  0.00     0.220 A 
ATOM     22  N   UNL     1      19.580   4.795  48.228  1.00  0.00    -0.222 NA
BRANCH  21  23
ATOM     23  N   UNL     1      19.085   6.754  49.375  1.00  0.00    -0.368 N 
ATOM     24  H   UNL     1      18.788   7.386  48.643  1.00  0.00     0.159 HD
ATOM     25  H   UNL     1      18.361   6.242  49.865  1.00  0.00     0.159 HD
ENDBRANCH  21  23
ENDBRANCH  12  17
ENDBRANCH   1   8
BRANCH   5  26
ATOM     26  N   UNL     1      25.845   1.358  52.222  1.00  0.00    -0.276 N 
ATOM     27  H   UNL     1      26.112   0.860  51.369  1.00  0.00     0.180 HD
BRANCH  26  28
ATOM     28  S   UNL     1      27.205   1.584  53.213  1.00  0.00     0.267 S 
ATOM     29  O   UNL     1      26.708   1.839  54.548  1.00  0.00    -0.201 OA
ATOM     30  O   UNL     1      28.074   2.541  52.562  1.00  0.00    -0.201 OA
BRANCH  28  31
ATOM     31  C   UNL     1      27.973   0.010  53.235  1.00  0.00     0.158 A 
ATOM     32  C   UNL     1      27.301  -1.135  52.836  1.00  0.00     0.146 A 
ATOM     33  C   UNL     1      29.293  -0.082  53.660  1.00  0.00     0.146 A 
ATOM     34  C   UNL     1      27.944  -2.374  52.871  1.00  0.00     0.041 A 
ATOM     35  C   UNL     1      29.946  -1.313  53.701  1.00  0.00     0.041 A 
ATOM     36  C   UNL     1      29.268  -2.466  53.304  1.00  0.00     0.006 A 
ATOM     37  F   UNL     1      26.030  -1.104  52.419  1.00  0.00    -0.205 F 
ATOM     38  F   UNL     1      29.957   1.008  54.076  1.00  0.00    -0.205 F 
ENDBRANCH  28  31
ENDBRANCH  26  28
ENDBRANCH   5  26
TORSDOF 7
ENDMDL
MODEL 9
REMARK VINA RESULT:    -8.771      3.350      7.207
REMARK INTER + INTRA:         -13.113
REMARK INTER:                 -13.043
REMARK INTRA:                  -0.070
REMARK UNBOUND:                -1.009
REMARK SMILES CC(C)(C)c1nc(-c2cccc(NS(=O)(=O)c3c(F)cccc3F)c2F)c(-c2ccnc(N)n2)s1
REMARK SMILES IDX 8 1 9 2 10 3 11 4 12 5 25 6 26 7 7 8 5 9 6 10 35 11 27 12
REMARK SMILES IDX 2 13 1 14 3 15 4 16 28 17 29 18 34 19 30 20 32 21 31 22
REMARK SMILES IDX 33 23 13 26 14 28 15 29 16 30 17 31 18 32 23 33 20 34 22 35
REMARK SMILES IDX 21 36 19 37 24 38
REMARK H PARENT 33 24 33 25 13 27
ROOT
ATOM      1  C   UNL     1      21.567   0.441  52.973  1.00  0.00     0.040 A 
ATOM      2  C   UNL     1      21.168   0.038  54.254  1.00  0.00     0.013 A 
ATOM      3  C   UNL     1      22.058  -0.642  55.090  1.00  0.00     0.003 A 
ATOM      4  C   UNL     1      23.360  -0.910  54.661  1.00  0.00     0.030 A 
ATOM      5  C   UNL     1      23.778  -0.485  53.403  1.00  0.00     0.085 A 
ATOM      6  C   UNL     1      22.877   0.180  52.563  1.00  0.00     0.156 A 
ATOM      7  F   UNL     1      23.310   0.594  51.362  1.00  0.00    -0.204 F 
ENDROOT
BRANCH   1   8
ATOM      8  C   UNL     1      20.627   1.158  52.126  1.00  0.00     0.094 A 
ATOM      9  C   UNL     1      18.638   1.423  51.165  1.00  0.00     0.099 A 
ATOM     10  N   UNL     1      19.366   0.624  51.918  1.00  0.00    -0.240 NA
ATOM     11  S   UNL     1      19.462   2.838  50.625  1.00  0.00    -0.116 S 
ATOM     12  C   UNL     1      20.884   2.348  51.462  1.00  0.00     0.081 A 
BRANCH   9  13
ATOM     13  C   UNL     1      17.192   1.131  50.762  1.00  0.00     0.014 C 
ATOM     14  C   UNL     1      17.164   0.160  49.569  1.00  0.00     0.018 C 
ATOM     15  C   UNL     1      16.446   0.465  51.940  1.00  0.00     0.018 C 
ATOM     16  C   UNL     1      16.438   2.425  50.401  1.00  0.00     0.018 C 
ENDBRANCH   9  13
BRANCH  12  17
ATOM     17  C   UNL     1      22.093   3.164  51.353  1.00  0.00     0.088 A 
ATOM     18  C   UNL     1      22.849   3.192  50.201  1.00  0.00     0.050 A 
ATOM     19  N   UNL     1      22.411   3.869  52.457  1.00  0.00    -0.212 NA
ATOM     20  C   UNL     1      23.970   3.983  50.253  1.00  0.00     0.117 A 
ATOM     21  C   UNL     1      23.512   4.619  52.394  1.00  0.00     0.220 A 
ATOM     22  N   UNL     1      24.326   4.693  51.336  1.00  0.00    -0.222 NA
BRANCH  21  23
ATOM     23  N   UNL     1      23.861   5.334  53.521  1.00  0.00    -0.368 N 
ATOM     24  H   UNL     1      24.574   6.012  53.286  1.00  0.00     0.159 HD
ATOM     25  H   UNL     1      23.027   5.680  53.980  1.00  0.00     0.159 HD
ENDBRANCH  21  23
ENDBRANCH  12  17
ENDBRANCH   1   8
BRANCH   5  26
ATOM     26  N   UNL     1      25.123  -0.689  52.956  1.00  0.00    -0.276 N 
ATOM     27  H   UNL     1      25.229  -1.280  52.128  1.00  0.00     0.180 HD
BRANCH  26  28
ATOM     28  S   UNL     1      26.146   0.662  52.841  1.00  0.00     0.267 S 
ATOM     29  O   UNL     1      25.791   1.545  53.931  1.00  0.00    -0.201 OA
ATOM     30  O   UNL     1      26.104   1.135  51.474  1.00  0.00    -0.201 OA
BRANCH  28  31
ATOM     31  C   UNL     1      27.735   0.014  53.192  1.00  0.00     0.158 A 
ATOM     32  C   UNL     1      28.760   0.814  53.672  1.00  0.00     0.146 A 
ATOM     33  C   UNL     1      27.962  -1.342  52.984  1.00  0.00     0.146 A 
ATOM     34  C   UNL     1      30.016   0.263  53.936  1.00  0.00     0.041 A 
ATOM     35  C   UNL     1      29.212  -1.904  53.243  1.00  0.00     0.041 A 
ATOM     36  C   UNL     1      30.244  -1.098  53.721  1.00  0.00     0.006 A 
ATOM     37  F   UNL     1      28.597   2.124  53.888  1.00  0.00    -0.205 F 
ATOM     38  F   UNL     1      26.995  -2.133  52.495  1.00  0.00    -0.205 F 
ENDBRANCH  28  31
ENDBRANCH  26  28
ENDBRANCH   5  26
TORSDOF 7
ENDMDL
MODEL 10
REMARK VINA RESULT:    -8.706      2.675      5.849
REMARK INTER + INTRA:         -13.024
REMARK INTER:                 -12.831
REMARK INTRA:                  -0.193
REMARK UNBOUND:                -1.009
REMARK SMILES CC(C)(C)c1nc(-c2cccc(NS(=O)(=O)c3c(F)cccc3F)c2F)c(-c2ccnc(N)n2)s1
REMARK SMILES IDX 8 1 9 2 10 3 11 4 12 5 25 6 26 7 7 8 5 9 6 10 35 11 27 12
REMARK SMILES IDX 2 13 1 14 3 15 4 16 28 17 29 18 34 19 30 20 32 21 31 22
REMARK SMILES IDX 33 23 13 26 14 28 15 29 16 30 17 31 18 32 23 33 20 34 22 35
REMARK SMILES IDX 21 36 19 37 24 38
REMARK H PARENT 33 24 33 25 13 27
ROOT
ATOM      1  C   UNL     1      24.621   3.247  52.063  1.00  0.00     0.040 A 
ATOM      2  C   UNL     1      23.573   3.907  52.717  1.00  0.00     0.013 A 
ATOM      3  C   UNL     1      23.088   5.123  52.227  1.00  0.00     0.003 A 
ATOM      4  C   UNL     1      23.634   5.681  51.069  1.00  0.00     0.030 A 
ATOM      5  C   UNL     1      24.652   5.018  50.391  1.00  0.00     0.085 A 
ATOM      6  C   UNL     1      25.146   3.809  50.896  1.00  0.00     0.156 A 
ATOM      7  F   UNL     1      26.117   3.180  50.215  1.00  0.00    -0.204 F 
ENDROOT
BRANCH   1   8
ATOM      8  C   UNL     1      25.100   1.977  52.585  1.00  0.00     0.094 A 
ATOM      9  C   UNL     1      26.691   0.640  53.376  1.00  0.00     0.099 A 
ATOM     10  N   UNL     1      26.446   1.833  52.875  1.00  0.00    -0.240 NA
ATOM     11  S   UNL     1      25.312  -0.390  53.472  1.00  0.00    -0.116 S 
ATOM     12  C   UNL     1      24.322   0.849  52.803  1.00  0.00     0.081 A 
BRANCH   9  13
ATOM     13  C   UNL     1      28.078   0.169  53.816  1.00  0.00     0.014 C 
ATOM     14  C   UNL     1      29.151   1.155  53.322  1.00  0.00     0.018 C 
ATOM     15  C   UNL     1      28.148   0.118  55.359  1.00  0.00     0.018 C 
ATOM     16  C   UNL     1      28.385  -1.245  53.286  1.00  0.00     0.018 C 
ENDBRANCH   9  13
BRANCH  12  17
ATOM     17  C   UNL     1      22.910   0.572  52.543  1.00  0.00     0.088 A 
ATOM     18  C   UNL     1      22.341   0.796  51.308  1.00  0.00     0.050 A 
ATOM     19  N   UNL     1      22.215   0.095  53.595  1.00  0.00    -0.212 NA
ATOM     20  C   UNL     1      21.000   0.514  51.218  1.00  0.00     0.117 A 
ATOM     21  C   UNL     1      20.922  -0.162  53.394  1.00  0.00     0.220 A 
ATOM     22  N   UNL     1      20.271   0.047  52.245  1.00  0.00    -0.222 NA
BRANCH  21  23
ATOM     23  N   UNL     1      20.193  -0.634  54.466  1.00  0.00    -0.368 N 
ATOM     24  H   UNL     1      20.087  -1.638  54.389  1.00  0.00     0.159 HD
ATOM     25  H   UNL     1      20.580  -0.275  55.330  1.00  0.00     0.159 HD
ENDBRANCH  21  23
ENDBRANCH  12  17
ENDBRANCH   1   8
BRANCH   5  26
ATOM     26  N   UNL     1      25.192   5.530  49.168  1.00  0.00    -0.276 N 
ATOM     27  H   UNL     1      24.620   5.378  48.333  1.00  0.00     0.180 HD
BRANCH  26  28
ATOM     28  S   UNL     1      25.818   7.109  49.164  1.00  0.00     0.267 S 
ATOM     29  O   UNL     1      25.795   7.568  50.536  1.00  0.00    -0.201 OA
ATOM     30  O   UNL     1      25.130   7.856  48.132  1.00  0.00    -0.201 OA
BRANCH  28  31
ATOM     31  C   UNL     1      27.497   6.892  48.714  1.00  0.00     0.158 A 
ATOM     32  C   UNL     1      28.005   5.648  48.372  1.00  0.00     0.146 A 
ATOM     33  C   UNL     1      28.331   8.003  48.699  1.00  0.00     0.146 A 
ATOM     34  C   UNL     1      29.350   5.512  48.023  1.00  0.00     0.041 A 
ATOM     35  C   UNL     1      29.677   7.880  48.355  1.00  0.00     0.041 A 
ATOM     36  C   UNL     1      30.189   6.629  48.014  1.00  0.00     0.006 A 
ATOM     37  F   UNL     1      27.247   4.546  48.371  1.00  0.00    -0.205 F 
ATOM     38  F   UNL     1      27.870   9.213  49.052  1.00  0.00    -0.205 F 
ENDBRANCH  28  31
ENDBRANCH  26  28
ENDBRANCH   5  26
TORSDOF 7
ENDMDL
MODEL 11
REMARK VINA RESULT:    -8.705      3.541      8.763
REMARK INTER + INTRA:         -13.022
REMARK INTER:                 -12.570
REMARK INTRA:                  -0.452
REMARK UNBOUND:                -1.009
REMARK SMILES CC(C)(C)c1nc(-c2cccc(NS(=O)(=O)c3c(F)cccc3F)c2F)c(-c2ccnc(N)n2)s1
REMARK SMILES IDX 8 1 9 2 10 3 11 4 12 5 25 6 26 7 7 8 5 9 6 10 35 11 27 12
REMARK SMILES IDX 2 13 1 14 3 15 4 16 28 17 29 18 34 19 30 20 32 21 31 22
REMARK SMILES IDX 33 23 13 26 14 28 15 29 16 30 17 31 18 32 23 33 20 34 22 35
REMARK SMILES IDX 21 36 19 37 24 38
REMARK H PARENT 33 24 33 25 13 27
ROOT
ATOM      1  C   UNL     1      24.342   4.371  50.718  1.00  0.00     0.040 A 
ATOM      2  C   UNL     1      23.279   4.561  51.612  1.00  0.00     0.013 A 
ATOM      3  C   UNL     1      23.050   3.642  52.642  1.00  0.00     0.003 A 
ATOM      4  C   UNL     1      23.890   2.538  52.799  1.00  0.00     0.030 A 
ATOM      5  C   UNL     1      24.969   2.358  51.938  1.00  0.00     0.085 A 
ATOM      6  C   UNL     1      25.183   3.270  50.898  1.00  0.00     0.156 A 
ATOM      7  F   UNL     1      26.241   3.083  50.092  1.00  0.00    -0.204 F 
ENDROOT
BRANCH   1   8
ATOM      8  C   UNL     1      24.568   5.345  49.664  1.00  0.00     0.094 A 
ATOM      9  C   UNL     1      25.833   6.804  48.558  1.00  0.00     0.099 A 
ATOM     10  N   UNL     1      25.790   5.992  49.595  1.00  0.00    -0.240 NA
ATOM     11  S   UNL     1      24.373   6.866  47.643  1.00  0.00    -0.116 S 
ATOM     12  C   UNL     1      23.641   5.726  48.704  1.00  0.00     0.081 A 
BRANCH   9  13
ATOM     13  C   UNL     1      27.049   7.654  48.191  1.00  0.00     0.014 C 
ATOM     14  C   UNL     1      26.783   8.414  46.879  1.00  0.00     0.018 C 
ATOM     15  C   UNL     1      27.314   8.695  49.303  1.00  0.00     0.018 C 
ATOM     16  C   UNL     1      28.316   6.790  48.046  1.00  0.00     0.018 C 
ENDBRANCH   9  13
BRANCH  12  17
ATOM     17  C   UNL     1      22.242   5.353  48.496  1.00  0.00     0.088 A 
ATOM     18  C   UNL     1      21.888   4.221  47.793  1.00  0.00     0.050 A 
ATOM     19  N   UNL     1      21.337   6.197  49.032  1.00  0.00    -0.212 NA
ATOM     20  C   UNL     1      20.538   4.012  47.657  1.00  0.00     0.117 A 
ATOM     21  C   UNL     1      20.052   5.889  48.855  1.00  0.00     0.220 A 
ATOM     22  N   UNL     1      19.606   4.834  48.167  1.00  0.00    -0.222 NA
BRANCH  21  23
ATOM     23  N   UNL     1      19.113   6.752  49.383  1.00  0.00    -0.368 N 
ATOM     24  H   UNL     1      19.534   7.301  50.121  1.00  0.00     0.159 HD
ATOM     25  H   UNL     1      18.654   7.259  48.636  1.00  0.00     0.159 HD
ENDBRANCH  21  23
ENDBRANCH  12  17
ENDBRANCH   1   8
BRANCH   5  26
ATOM     26  N   UNL     1      25.885   1.271  52.108  1.00  0.00    -0.276 N 
ATOM     27  H   UNL     1      26.227   0.841  51.245  1.00  0.00     0.180 HD
BRANCH  26  28
ATOM     28  S   UNL     1      27.164   1.461  53.210  1.00  0.00     0.267 S 
ATOM     29  O   UNL     1      26.563   1.660  54.512  1.00  0.00    -0.201 OA
ATOM     30  O   UNL     1      28.074   2.446  52.667  1.00  0.00    -0.201 OA
BRANCH  28  31
ATOM     31  C   UNL     1      27.937  -0.111  53.228  1.00  0.00     0.158 A 
ATOM     32  C   UNL     1      29.265  -0.266  53.595  1.00  0.00     0.146 A 
ATOM     33  C   UNL     1      27.190  -1.225  52.867  1.00  0.00     0.146 A 
ATOM     34  C   UNL     1      29.850  -1.534  53.592  1.00  0.00     0.041 A 
ATOM     35  C   UNL     1      27.763  -2.497  52.859  1.00  0.00     0.041 A 
ATOM     36  C   UNL     1      29.099  -2.652  53.224  1.00  0.00     0.006 A 
ATOM     37  F   UNL     1      30.030   0.773  53.949  1.00  0.00    -0.205 F 
ATOM     38  F   UNL     1      25.910  -1.098  52.482  1.00  0.00    -0.205 F 
ENDBRANCH  28  31
ENDBRANCH  26  28
ENDBRANCH   5  26
TORSDOF 7
ENDMDL
MODEL 12
REMARK VINA RESULT:    -8.599      2.996      7.570
REMARK INTER + INTRA:         -12.876
REMARK INTER:                 -12.079
REMARK INTRA:                  -0.797
REMARK UNBOUND:                -1.009
REMARK SMILES CC(C)(C)c1nc(-c2cccc(NS(=O)(=O)c3c(F)cccc3F)c2F)c(-c2ccnc(N)n2)s1
REMARK SMILES IDX 8 1 9 2 10 3 11 4 12 5 25 6 26 7 7 8 5 9 6 10 35 11 27 12
REMARK SMILES IDX 2 13 1 14 3 15 4 16 28 17 29 18 34 19 30 20 32 21 31 22
REMARK SMILES IDX 33 23 13 26 14 28 15 29 16 30 17 31 18 32 23 33 20 34 22 35
REMARK SMILES IDX 21 36 19 37 24 38
REMARK H PARENT 33 24 33 25 13 27
ROOT
ATOM      1  C   UNL     1      22.366   3.224  50.162  1.00  0.00     0.040 A 
ATOM      2  C   UNL     1      21.394   3.106  51.164  1.00  0.00     0.013 A 
ATOM      3  C   UNL     1      21.640   2.329  52.300  1.00  0.00     0.003 A 
ATOM      4  C   UNL     1      22.866   1.678  52.454  1.00  0.00     0.030 A 
ATOM      5  C   UNL     1      23.853   1.815  51.482  1.00  0.00     0.085 A 
ATOM      6  C   UNL     1      23.594   2.580  50.338  1.00  0.00     0.156 A 
ATOM      7  F   UNL     1      24.568   2.710  49.422  1.00  0.00    -0.204 F 
ENDROOT
BRANCH   1   8
ATOM      8  C   UNL     1      22.092   4.047  48.996  1.00  0.00     0.094 A 
ATOM      9  C   UNL     1      21.037   4.478  47.086  1.00  0.00     0.099 A 
ATOM     10  N   UNL     1      21.195   3.590  48.045  1.00  0.00    -0.240 NA
ATOM     11  S   UNL     1      22.009   5.892  47.257  1.00  0.00    -0.116 S 
ATOM     12  C   UNL     1      22.678   5.272  48.717  1.00  0.00     0.081 A 
BRANCH   9  13
ATOM     13  C   UNL     1      20.101   4.286  45.892  1.00  0.00     0.014 C 
ATOM     14  C   UNL     1      19.415   5.618  45.541  1.00  0.00     0.018 C 
ATOM     15  C   UNL     1      20.914   3.826  44.660  1.00  0.00     0.018 C 
ATOM     16  C   UNL     1      19.036   3.210  46.179  1.00  0.00     0.018 C 
ENDBRANCH   9  13
BRANCH  12  17
ATOM     17  C   UNL     1      23.716   6.038  49.407  1.00  0.00     0.088 A 
ATOM     18  C   UNL     1      23.414   6.923  50.419  1.00  0.00     0.050 A 
ATOM     19  N   UNL     1      24.975   5.819  48.975  1.00  0.00    -0.212 NA
ATOM     20  C   UNL     1      24.487   7.589  50.958  1.00  0.00     0.117 A 
ATOM     21  C   UNL     1      25.945   6.505  49.579  1.00  0.00     0.220 A 
ATOM     22  N   UNL     1      25.754   7.406  50.548  1.00  0.00    -0.222 NA
BRANCH  21  23
ATOM     23  N   UNL     1      27.236   6.305  49.137  1.00  0.00    -0.368 N 
ATOM     24  H   UNL     1      27.760   5.796  49.837  1.00  0.00     0.159 HD
ATOM     25  H   UNL     1      27.223   5.920  48.200  1.00  0.00     0.159 HD
ENDBRANCH  21  23
ENDBRANCH  12  17
ENDBRANCH   1   8
BRANCH   5  26
ATOM     26  N   UNL     1      25.142   1.212  51.637  1.00  0.00    -0.276 N 
ATOM     27  H   UNL     1      25.487   0.691  50.827  1.00  0.00     0.180 HD
BRANCH  26  28
ATOM     28  S   UNL     1      26.394   2.148  52.301  1.00  0.00     0.267 S 
ATOM     29  O   UNL     1      25.851   2.791  53.478  1.00  0.00    -0.201 OA
ATOM     30  O   UNL     1      26.968   2.941  51.236  1.00  0.00    -0.201 OA
BRANCH  28  31
ATOM     31  C   UNL     1      27.560   0.960  52.847  1.00  0.00     0.158 A 
ATOM     32  C   UNL     1      28.736   1.330  53.481  1.00  0.00     0.146 A 
ATOM     33  C   UNL     1      27.286  -0.386  52.638  1.00  0.00     0.146 A 
ATOM     34  C   UNL     1      29.644   0.355  53.898  1.00  0.00     0.041 A 
ATOM     35  C   UNL     1      28.186  -1.369  53.048  1.00  0.00     0.041 A 
ATOM     36  C   UNL     1      29.371  -0.997  53.682  1.00  0.00     0.006 A 
ATOM     37  F   UNL     1      29.049   2.611  53.706  1.00  0.00    -0.205 F 
ATOM     38  F   UNL     1      26.167  -0.769  52.003  1.00  0.00    -0.205 F 
ENDBRANCH  28  31
ENDBRANCH  26  28
ENDBRANCH   5  26
TORSDOF 7
ENDMDL
MODEL 13
REMARK VINA RESULT:    -8.588      3.094      7.218
REMARK INTER + INTRA:         -12.861
REMARK INTER:                 -12.249
REMARK INTRA:                  -0.612
REMARK UNBOUND:                -1.009
REMARK SMILES CC(C)(C)c1nc(-c2cccc(NS(=O)(=O)c3c(F)cccc3F)c2F)c(-c2ccnc(N)n2)s1
REMARK SMILES IDX 8 1 9 2 10 3 11 4 12 5 25 6 26 7 7 8 5 9 6 10 35 11 27 12
REMARK SMILES IDX 2 13 1 14 3 15 4 16 28 17 29 18 34 19 30 20 32 21 31 22
REMARK SMILES IDX 33 23 13 26 14 28 15 29 16 30 17 31 18 32 23 33 20 34 22 35
REMARK SMILES IDX 21 36 19 37 24 38
REMARK H PARENT 33 24 33 25 13 27
ROOT
ATOM      1  C   UNL     1      24.138   3.464  50.745  1.00  0.00     0.040 A 
ATOM      2  C   UNL     1      24.889   3.219  49.588  1.00  0.00     0.013 A 
ATOM      3  C   UNL     1      26.204   2.752  49.685  1.00  0.00     0.003 A 
ATOM      4  C   UNL     1      26.773   2.509  50.938  1.00  0.00     0.030 A 
ATOM      5  C   UNL     1      26.024   2.716  52.093  1.00  0.00     0.085 A 
ATOM      6  C   UNL     1      24.714   3.201  51.990  1.00  0.00     0.156 A 
ATOM      7  F   UNL     1      24.007   3.377  53.118  1.00  0.00    -0.204 F 
ENDROOT
BRANCH   1   8
ATOM      8  C   UNL     1      22.769   3.937  50.617  1.00  0.00     0.094 A 
ATOM      9  C   UNL     1      20.564   3.655  50.704  1.00  0.00     0.099 A 
ATOM     10  N   UNL     1      21.727   3.047  50.817  1.00  0.00    -0.240 NA
ATOM     11  S   UNL     1      20.671   5.327  50.296  1.00  0.00    -0.116 S 
ATOM     12  C   UNL     1      22.390   5.227  50.277  1.00  0.00     0.081 A 
BRANCH   9  13
ATOM     13  C   UNL     1      19.216   2.956  50.883  1.00  0.00     0.014 C 
ATOM     14  C   UNL     1      18.102   4.001  51.069  1.00  0.00     0.018 C 
ATOM     15  C   UNL     1      18.888   2.124  49.622  1.00  0.00     0.018 C 
ATOM     16  C   UNL     1      19.237   1.995  52.087  1.00  0.00     0.018 C 
ENDBRANCH   9  13
BRANCH  12  17
ATOM     17  C   UNL     1      23.169   6.409  49.907  1.00  0.00     0.088 A 
ATOM     18  C   UNL     1      22.741   7.286  48.933  1.00  0.00     0.050 A 
ATOM     19  N   UNL     1      24.328   6.566  50.577  1.00  0.00    -0.212 NA
ATOM     20  C   UNL     1      23.586   8.336  48.674  1.00  0.00     0.117 A 
ATOM     21  C   UNL     1      25.066   7.630  50.259  1.00  0.00     0.220 A 
ATOM     22  N   UNL     1      24.754   8.521  49.313  1.00  0.00    -0.222 NA
BRANCH  21  23
ATOM     23  N   UNL     1      26.263   7.795  50.924  1.00  0.00    -0.368 N 
ATOM     24  H   UNL     1      26.097   8.244  51.816  1.00  0.00     0.159 HD
ATOM     25  H   UNL     1      26.774   6.921  50.935  1.00  0.00     0.159 HD
ENDBRANCH  21  23
ENDBRANCH  12  17
ENDBRANCH   1   8
BRANCH   5  26
ATOM     26  N   UNL     1      26.554   2.420  53.389  1.00  0.00    -0.276 N 
ATOM     27  H   UNL     1      26.459   3.162  54.086  1.00  0.00     0.180 HD
BRANCH  26  28
ATOM     28  S   UNL     1      26.182   0.916  54.085  1.00  0.00     0.267 S 
ATOM     29  O   UNL     1      25.075   0.371  53.330  1.00  0.00    -0.201 OA
ATOM     30  O   UNL     1      26.067   1.106  55.515  1.00  0.00    -0.201 OA
BRANCH  28  31
ATOM     31  C   UNL     1      27.589  -0.067  53.733  1.00  0.00     0.158 A 
ATOM     32  C   UNL     1      27.478  -1.305  53.117  1.00  0.00     0.146 A 
ATOM     33  C   UNL     1      28.844   0.418  54.079  1.00  0.00     0.146 A 
ATOM     34  C   UNL     1      28.622  -2.063  52.856  1.00  0.00     0.041 A 
ATOM     35  C   UNL     1      29.993  -0.330  53.825  1.00  0.00     0.041 A 
ATOM     36  C   UNL     1      29.882  -1.576  53.210  1.00  0.00     0.006 A 
ATOM     37  F   UNL     1      26.295  -1.819  52.764  1.00  0.00    -0.205 F 
ATOM     38  F   UNL     1      28.976   1.601  54.699  1.00  0.00    -0.205 F 
ENDBRANCH  28  31
ENDBRANCH  26  28
ENDBRANCH   5  26
TORSDOF 7
ENDMDL
MODEL 14
REMARK VINA RESULT:    -8.566      3.166      7.503
REMARK INTER + INTRA:         -12.831
REMARK INTER:                 -11.515
REMARK INTRA:                  -1.316
REMARK UNBOUND:                -1.009
REMARK SMILES CC(C)(C)c1nc(-c2cccc(NS(=O)(=O)c3c(F)cccc3F)c2F)c(-c2ccnc(N)n2)s1
REMARK SMILES IDX 8 1 9 2 10 3 11 4 12 5 25 6 26 7 7 8 5 9 6 10 35 11 27 12
REMARK SMILES IDX 2 13 1 14 3 15 4 16 28 17 29 18 34 19 30 20 32 21 31 22
REMARK SMILES IDX 33 23 13 26 14 28 15 29 16 30 17 31 18 32 23 33 20 34 22 35
REMARK SMILES IDX 21 36 19 37 24 38
REMARK H PARENT 33 24 33 25 13 27
ROOT
ATOM      1  C   UNL     1      24.505   3.586  50.907  1.00  0.00     0.040 A 
ATOM      2  C   UNL     1      25.320   3.190  49.839  1.00  0.00     0.013 A 
ATOM      3  C   UNL     1      26.534   2.539  50.079  1.00  0.00     0.003 A 
ATOM      4  C   UNL     1      26.936   2.263  51.388  1.00  0.00     0.030 A 
ATOM      5  C   UNL     1      26.118   2.621  52.456  1.00  0.00     0.085 A 
ATOM      6  C   UNL     1      24.912   3.288  52.210  1.00  0.00     0.156 A 
ATOM      7  F   UNL     1      24.133   3.608  53.256  1.00  0.00    -0.204 F 
ENDROOT
BRANCH   1   8
ATOM      8  C   UNL     1      23.241   4.250  50.631  1.00  0.00     0.094 A 
ATOM      9  C   UNL     1      22.026   6.009  50.018  1.00  0.00     0.099 A 
ATOM     10  N   UNL     1      23.248   5.587  50.271  1.00  0.00    -0.240 NA
ATOM     11  S   UNL     1      20.798   4.822  50.256  1.00  0.00    -0.116 S 
ATOM     12  C   UNL     1      21.986   3.666  50.722  1.00  0.00     0.081 A 
BRANCH   9  13
ATOM     13  C   UNL     1      21.691   7.435  49.579  1.00  0.00     0.014 C 
ATOM     14  C   UNL     1      21.049   7.418  48.181  1.00  0.00     0.018 C 
ATOM     15  C   UNL     1      20.677   8.060  50.565  1.00  0.00     0.018 C 
ATOM     16  C   UNL     1      22.946   8.329  49.568  1.00  0.00     0.018 C 
ENDBRANCH   9  13
BRANCH  12  17
ATOM     17  C   UNL     1      21.557   2.334  51.148  1.00  0.00     0.088 A 
ATOM     18  C   UNL     1      21.426   1.293  50.254  1.00  0.00     0.050 A 
ATOM     19  N   UNL     1      21.296   2.208  52.464  1.00  0.00    -0.212 NA
ATOM     20  C   UNL     1      20.991   0.107  50.792  1.00  0.00     0.117 A 
ATOM     21  C   UNL     1      20.896   1.007  52.884  1.00  0.00     0.220 A 
ATOM     22  N   UNL     1      20.710  -0.055  52.096  1.00  0.00    -0.222 NA
BRANCH  21  23
ATOM     23  N   UNL     1      20.608   0.867  54.226  1.00  0.00    -0.368 N 
ATOM     24  H   UNL     1      19.613   0.984  54.374  1.00  0.00     0.159 HD
ATOM     25  H   UNL     1      21.030   0.018  54.582  1.00  0.00     0.159 HD
ENDBRANCH  21  23
ENDBRANCH  12  17
ENDBRANCH   1   8
BRANCH   5  26
ATOM     26  N   UNL     1      26.470   2.298  53.806  1.00  0.00    -0.276 N 
ATOM     27  H   UNL     1      26.214   2.995  54.509  1.00  0.00     0.180 HD
BRANCH  26  28
ATOM     28  S   UNL     1      26.117   0.738  54.379  1.00  0.00     0.267 S 
ATOM     29  O   UNL     1      24.983   0.263  53.615  1.00  0.00    -0.201 OA
ATOM     30  O   UNL     1      26.050   0.801  55.823  1.00  0.00    -0.201 OA
BRANCH  28  31
ATOM     31  C   UNL     1      27.507  -0.210  53.893  1.00  0.00     0.158 A 
ATOM     32  C   UNL     1      27.375  -1.363  53.134  1.00  0.00     0.146 A 
ATOM     33  C   UNL     1      28.772   0.217  54.279  1.00  0.00     0.146 A 
ATOM     34  C   UNL     1      28.506  -2.096  52.769  1.00  0.00     0.041 A 
ATOM     35  C   UNL     1      29.909  -0.507  53.923  1.00  0.00     0.041 A 
ATOM     36  C   UNL     1      29.776  -1.669  53.163  1.00  0.00     0.006 A 
ATOM     37  F   UNL     1      26.182  -1.819  52.737  1.00  0.00    -0.205 F 
ATOM     38  F   UNL     1      28.925   1.314  55.036  1.00  0.00    -0.205 F 
ENDBRANCH  28  31
ENDBRANCH  26  28
ENDBRANCH   5  26
TORSDOF 7
ENDMDL
MODEL 15
REMARK VINA RESULT:    -8.540      3.180      7.302
REMARK INTER + INTRA:         -12.795
REMARK INTER:                 -12.054
REMARK INTRA:                  -0.741
REMARK UNBOUND:                -1.009
REMARK SMILES CC(C)(C)c1nc(-c2cccc(NS(=O)(=O)c3c(F)cccc3F)c2F)c(-c2ccnc(N)n2)s1
REMARK SMILES IDX 8 1 9 2 10 3 11 4 12 5 25 6 26 7 7 8 5 9 6 10 35 11 27 12
REMARK SMILES IDX 2 13 1 14 3 15 4 16 28 17 29 18 34 19 30 20 32 21 31 22
REMARK SMILES IDX 33 23 13 26 14 28 15 29 16 30 17 31 18 32 23 33 20 34 22 35
REMARK SMILES IDX 21 36 19 37 24 38
REMARK H PARENT 33 24 33 25 13 27
ROOT
ATOM      1  C   UNL     1      24.359   3.143  50.982  1.00  0.00     0.040 A 
ATOM      2  C   UNL     1      25.255   2.875  49.939  1.00  0.00     0.013 A 
ATOM      3  C   UNL     1      26.533   2.381  50.215  1.00  0.00     0.003 A 
ATOM      4  C   UNL     1      26.921   2.133  51.534  1.00  0.00     0.030 A 
ATOM      5  C   UNL     1      26.027   2.362  52.576  1.00  0.00     0.085 A 
ATOM      6  C   UNL     1      24.755   2.875  52.295  1.00  0.00     0.156 A 
ATOM      7  F   UNL     1      23.906   3.073  53.316  1.00  0.00    -0.204 F 
ENDROOT
BRANCH   1   8
ATOM      8  C   UNL     1      23.031   3.646  50.669  1.00  0.00     0.094 A 
ATOM      9  C   UNL     1      20.813   3.478  50.629  1.00  0.00     0.099 A 
ATOM     10  N   UNL     1      21.930   2.849  50.935  1.00  0.00    -0.240 NA
ATOM     11  S   UNL     1      21.041   5.047  49.953  1.00  0.00    -0.116 S 
ATOM     12  C   UNL     1      22.748   4.872  50.086  1.00  0.00     0.081 A 
BRANCH   9  13
ATOM     13  C   UNL     1      19.419   2.879  50.818  1.00  0.00     0.014 C 
ATOM     14  C   UNL     1      19.479   1.708  51.815  1.00  0.00     0.018 C 
ATOM     15  C   UNL     1      18.464   3.950  51.393  1.00  0.00     0.018 C 
ATOM     16  C   UNL     1      18.829   2.395  49.479  1.00  0.00     0.018 C 
ENDBRANCH   9  13
BRANCH  12  17
ATOM     17  C   UNL     1      23.616   5.937  49.583  1.00  0.00     0.088 A 
ATOM     18  C   UNL     1      23.504   6.419  48.297  1.00  0.00     0.050 A 
ATOM     19  N   UNL     1      24.529   6.398  50.462  1.00  0.00    -0.212 NA
ATOM     20  C   UNL     1      24.401   7.400  47.956  1.00  0.00     0.117 A 
ATOM     21  C   UNL     1      25.340   7.365  50.033  1.00  0.00     0.220 A 
ATOM     22  N   UNL     1      25.331   7.879  48.799  1.00  0.00    -0.222 NA
BRANCH  21  23
ATOM     23  N   UNL     1      26.291   7.835  50.916  1.00  0.00    -0.368 N 
ATOM     24  H   UNL     1      26.960   7.102  51.117  1.00  0.00     0.159 HD
ATOM     25  H   UNL     1      26.660   8.719  50.585  1.00  0.00     0.159 HD
ENDBRANCH  21  23
ENDBRANCH  12  17
ENDBRANCH   1   8
BRANCH   5  26
ATOM     26  N   UNL     1      26.370   2.061  53.933  1.00  0.00    -0.276 N 
ATOM     27  H   UNL     1      26.050   2.737  54.631  1.00  0.00     0.180 HD
BRANCH  26  28
ATOM     28  S   UNL     1      26.115   0.479  54.495  1.00  0.00     0.267 S 
ATOM     29  O   UNL     1      25.002  -0.055  53.740  1.00  0.00    -0.201 OA
ATOM     30  O   UNL     1      26.062   0.526  55.940  1.00  0.00    -0.201 OA
BRANCH  28  31
ATOM     31  C   UNL     1      27.553  -0.383  53.985  1.00  0.00     0.158 A 
ATOM     32  C   UNL     1      28.820   0.009  54.389  1.00  0.00     0.146 A 
ATOM     33  C   UNL     1      27.407  -1.490  53.158  1.00  0.00     0.146 A 
ATOM     34  C   UNL     1      29.943  -0.700  53.959  1.00  0.00     0.041 A 
ATOM     35  C   UNL     1      28.521  -2.205  52.720  1.00  0.00     0.041 A 
ATOM     36  C   UNL     1      29.796  -1.809  53.123  1.00  0.00     0.006 A 
ATOM     37  F   UNL     1      29.017   1.068  55.183  1.00  0.00    -0.205 F 
ATOM     38  F   UNL     1      26.194  -1.874  52.732  1.00  0.00    -0.205 F 
ENDBRANCH  28  31
ENDBRANCH  26  28
ENDBRANCH   5  26
TORSDOF 7
ENDMDL
MODEL 16
REMARK VINA RESULT:    -8.478      3.185      7.453
REMARK INTER + INTRA:         -12.708
REMARK INTER:                 -11.582
REMARK INTRA:                  -1.127
REMARK UNBOUND:                -1.009
REMARK SMILES CC(C)(C)c1nc(-c2cccc(NS(=O)(=O)c3c(F)cccc3F)c2F)c(-c2ccnc(N)n2)s1
REMARK SMILES IDX 8 1 9 2 10 3 11 4 12 5 25 6 26 7 7 8 5 9 6 10 35 11 27 12
REMARK SMILES IDX 2 13 1 14 3 15 4 16 28 17 29 18 34 19 30 20 32 21 31 22
REMARK SMILES IDX 33 23 13 26 14 28 15 29 16 30 17 31 18 32 23 33 20 34 22 35
REMARK SMILES IDX 21 36 19 37 24 38
REMARK H PARENT 33 24 33 25 13 27
ROOT
ATOM      1  C   UNL     1      24.450   4.107  50.302  1.00  0.00     0.040 A 
ATOM      2  C   UNL     1      25.587   3.892  49.510  1.00  0.00     0.013 A 
ATOM      3  C   UNL     1      26.647   3.117  49.991  1.00  0.00     0.003 A 
ATOM      4  C   UNL     1      26.574   2.536  51.259  1.00  0.00     0.030 A 
ATOM      5  C   UNL     1      25.436   2.714  52.040  1.00  0.00     0.085 A 
ATOM      6  C   UNL     1      24.385   3.505  51.561  1.00  0.00     0.156 A 
ATOM      7  F   UNL     1      23.291   3.648  52.327  1.00  0.00    -0.204 F 
ENDROOT
BRANCH   1   8
ATOM      8  C   UNL     1      23.356   4.906  49.775  1.00  0.00     0.094 A 
ATOM      9  C   UNL     1      22.478   6.811  49.036  1.00  0.00     0.099 A 
ATOM     10  N   UNL     1      23.557   6.258  49.551  1.00  0.00    -0.240 NA
ATOM     11  S   UNL     1      21.146   5.734  48.846  1.00  0.00    -0.116 S 
ATOM     12  C   UNL     1      22.081   4.441  49.491  1.00  0.00     0.081 A 
BRANCH   9  13
ATOM     13  C   UNL     1      22.377   8.289  48.657  1.00  0.00     0.014 C 
ATOM     14  C   UNL     1      23.727   8.988  48.897  1.00  0.00     0.018 C 
ATOM     15  C   UNL     1      22.029   8.422  47.157  1.00  0.00     0.018 C 
ATOM     16  C   UNL     1      21.271   9.001  49.460  1.00  0.00     0.018 C 
ENDBRANCH   9  13
BRANCH  12  17
ATOM     17  C   UNL     1      21.457   3.130  49.672  1.00  0.00     0.088 A 
ATOM     18  C   UNL     1      21.812   2.044  48.901  1.00  0.00     0.050 A 
ATOM     19  N   UNL     1      20.514   3.070  50.633  1.00  0.00    -0.212 NA
ATOM     20  C   UNL     1      21.125   0.885  49.165  1.00  0.00     0.117 A 
ATOM     21  C   UNL     1      19.921   1.890  50.819  1.00  0.00     0.220 A 
ATOM     22  N   UNL     1      20.172   0.788  50.107  1.00  0.00    -0.222 NA
BRANCH  21  23
ATOM     23  N   UNL     1      18.940   1.817  51.787  1.00  0.00    -0.368 N 
ATOM     24  H   UNL     1      18.938   0.893  52.199  1.00  0.00     0.159 HD
ATOM     25  H   UNL     1      19.022   2.604  52.420  1.00  0.00     0.159 HD
ENDBRANCH  21  23
ENDBRANCH  12  17
ENDBRANCH   1   8
BRANCH   5  26
ATOM     26  N   UNL     1      25.302   2.082  53.318  1.00  0.00    -0.276 N 
ATOM     27  H   UNL     1      24.469   2.338  53.853  1.00  0.00     0.180 HD
BRANCH  26  28
ATOM     28  S   UNL     1      25.566   0.407  53.419  1.00  0.00     0.267 S 
ATOM     29  O   UNL     1      26.395   0.188  54.584  1.00  0.00    -0.201 OA
ATOM     30  O   UNL     1      25.999  -0.053  52.117  1.00  0.00    -0.201 OA
BRANCH  28  31
ATOM     31  C   UNL     1      23.980  -0.245  53.778  1.00  0.00     0.158 A 
ATOM     32  C   UNL     1      23.738  -0.985  54.925  1.00  0.00     0.146 A 
ATOM     33  C   UNL     1      22.943  -0.004  52.884  1.00  0.00     0.146 A 
ATOM     34  C   UNL     1      22.461  -1.493  55.176  1.00  0.00     0.041 A 
ATOM     35  C   UNL     1      21.665  -0.507  53.122  1.00  0.00     0.041 A 
ATOM     36  C   UNL     1      21.422  -1.255  54.274  1.00  0.00     0.006 A 
ATOM     37  F   UNL     1      24.699  -1.247  55.817  1.00  0.00    -0.205 F 
ATOM     38  F   UNL     1      23.158   0.687  51.754  1.00  0.00    -0.205 F 
ENDBRANCH  28  31
ENDBRANCH  26  28
ENDBRANCH   5  26
TORSDOF 7
ENDMDL
MODEL 17
REMARK VINA RESULT:    -8.472      2.878      7.250
REMARK INTER + INTRA:         -12.700
REMARK INTER:                 -12.499
REMARK INTRA:                  -0.201
REMARK UNBOUND:                -1.009
REMARK SMILES CC(C)(C)c1nc(-c2cccc(NS(=O)(=O)c3c(F)cccc3F)c2F)c(-c2ccnc(N)n2)s1
REMARK SMILES IDX 8 1 9 2 10 3 11 4 12 5 25 6 26 7 7 8 5 9 6 10 35 11 27 12
REMARK SMILES IDX 2 13 1 14 3 15 4 16 28 17 29 18 34 19 30 20 32 21 31 22
REMARK SMILES IDX 33 23 13 26 14 28 15 29 16 30 17 31 18 32 23 33 20 34 22 35
REMARK SMILES IDX 21 36 19 37 24 38
REMARK H PARENT 33 24 33 25 13 27
ROOT
ATOM      1  C   UNL     1      21.665   2.387  51.078  1.00  0.00     0.040 A 
ATOM      2  C   UNL     1      20.944   2.024  52.223  1.00  0.00     0.013 A 
ATOM      3  C   UNL     1      21.540   1.235  53.212  1.00  0.00     0.003 A 
ATOM      4  C   UNL     1      22.866   0.818  53.075  1.00  0.00     0.030 A 
ATOM      5  C   UNL     1      23.602   1.202  51.958  1.00  0.00     0.085 A 
ATOM      6  C   UNL     1      22.995   1.976  50.962  1.00  0.00     0.156 A 
ATOM      7  F   UNL     1      23.732   2.347  49.902  1.00  0.00    -0.204 F 
ENDROOT
BRANCH   1   8
ATOM      8  C   UNL     1      21.027   3.218  50.069  1.00  0.00     0.094 A 
ATOM      9  C   UNL     1      19.359   3.714  48.683  1.00  0.00     0.099 A 
ATOM     10  N   UNL     1      19.806   2.826  49.548  1.00  0.00    -0.240 NA
ATOM     11  S   UNL     1      20.423   5.044  48.415  1.00  0.00    -0.116 S 
ATOM     12  C   UNL     1      21.551   4.387  49.538  1.00  0.00     0.081 A 
BRANCH   9  13
ATOM     13  C   UNL     1      18.029   3.586  47.941  1.00  0.00     0.014 C 
ATOM     14  C   UNL     1      18.281   3.225  46.466  1.00  0.00     0.018 C 
ATOM     15  C   UNL     1      17.183   2.457  48.574  1.00  0.00     0.018 C 
ATOM     16  C   UNL     1      17.210   4.889  48.027  1.00  0.00     0.018 C 
ENDBRANCH   9  13
BRANCH  12  17
ATOM     17  C   UNL     1      22.826   5.071  49.751  1.00  0.00     0.088 A 
ATOM     18  C   UNL     1      23.758   5.202  48.744  1.00  0.00     0.050 A 
ATOM     19  N   UNL     1      23.019   5.551  50.997  1.00  0.00    -0.212 NA
ATOM     20  C   UNL     1      24.919   5.845  49.097  1.00  0.00     0.117 A 
ATOM     21  C   UNL     1      24.175   6.175  51.227  1.00  0.00     0.220 A 
ATOM     22  N   UNL     1      25.153   6.328  50.329  1.00  0.00    -0.222 NA
BRANCH  21  23
ATOM     23  N   UNL     1      24.395   6.656  52.501  1.00  0.00    -0.368 N 
ATOM     24  H   UNL     1      23.520   6.681  53.010  1.00  0.00     0.159 HD
ATOM     25  H   UNL     1      25.163   6.155  52.930  1.00  0.00     0.159 HD
ENDBRANCH  21  23
ENDBRANCH  12  17
ENDBRANCH   1   8
BRANCH   5  26
ATOM     26  N   UNL     1      24.981   0.844  51.815  1.00  0.00    -0.276 N 
ATOM     27  H   UNL     1      25.248   0.470  50.901  1.00  0.00     0.180 HD
BRANCH  26  28
ATOM     28  S   UNL     1      26.158   1.940  52.361  1.00  0.00     0.267 S 
ATOM     29  O   UNL     1      25.606   2.594  53.528  1.00  0.00    -0.201 OA
ATOM     30  O   UNL     1      26.596   2.722  51.225  1.00  0.00    -0.201 OA
BRANCH  28  31
ATOM     31  C   UNL     1      27.465   0.911  52.909  1.00  0.00     0.158 A 
ATOM     32  C   UNL     1      28.587   1.428  53.538  1.00  0.00     0.146 A 
ATOM     33  C   UNL     1      27.363  -0.460  52.706  1.00  0.00     0.146 A 
ATOM     34  C   UNL     1      29.611   0.578  53.958  1.00  0.00     0.041 A 
ATOM     35  C   UNL     1      28.380  -1.320  53.118  1.00  0.00     0.041 A 
ATOM     36  C   UNL     1      29.510  -0.799  53.748  1.00  0.00     0.006 A 
ATOM     37  F   UNL     1      28.736   2.740  53.757  1.00  0.00    -0.205 F 
ATOM     38  F   UNL     1      26.301  -0.984  52.075  1.00  0.00    -0.205 F 
ENDBRANCH  28  31
ENDBRANCH  26  28
ENDBRANCH   5  26
TORSDOF 7
ENDMDL
MODEL 18
REMARK VINA RESULT:    -8.448      3.303      7.327
REMARK INTER + INTRA:         -12.668
REMARK INTER:                 -11.914
REMARK INTRA:                  -0.753
REMARK UNBOUND:                -1.009
REMARK SMILES CC(C)(C)c1nc(-c2cccc(NS(=O)(=O)c3c(F)cccc3F)c2F)c(-c2ccnc(N)n2)s1
REMARK SMILES IDX 8 1 9 2 10 3 11 4 12 5 25 6 26 7 7 8 5 9 6 10 35 11 27 12
REMARK SMILES IDX 2 13 1 14 3 15 4 16 28 17 29 18 34 19 30 20 32 21 31 22
REMARK SMILES IDX 33 23 13 26 14 28 15 29 16 30 17 31 18 32 23 33 20 34 22 35
REMARK SMILES IDX 21 36 19 37 24 38
REMARK H PARENT 33 24 33 25 13 27
ROOT
ATOM      1  C   UNL     1      24.838   4.950  49.294  1.00  0.00     0.040 A 
ATOM      2  C   UNL     1      26.116   4.401  49.121  1.00  0.00     0.013 A 
ATOM      3  C   UNL     1      26.605   3.450  50.022  1.00  0.00     0.003 A 
ATOM      4  C   UNL     1      25.815   3.026  51.093  1.00  0.00     0.030 A 
ATOM      5  C   UNL     1      24.531   3.538  51.255  1.00  0.00     0.085 A 
ATOM      6  C   UNL     1      24.054   4.503  50.361  1.00  0.00     0.156 A 
ATOM      7  F   UNL     1      22.806   4.970  50.529  1.00  0.00    -0.204 F 
ENDROOT
BRANCH   1   8
ATOM      8  C   UNL     1      24.348   5.928  48.337  1.00  0.00     0.094 A 
ATOM      9  C   UNL     1      22.824   6.714  46.920  1.00  0.00     0.099 A 
ATOM     10  N   UNL     1      23.128   5.712  47.718  1.00  0.00    -0.240 NA
ATOM     11  S   UNL     1      24.027   7.947  46.835  1.00  0.00    -0.116 S 
ATOM     12  C   UNL     1      25.014   7.080  47.947  1.00  0.00     0.081 A 
BRANCH   9  13
ATOM     13  C   UNL     1      21.535   6.791  46.101  1.00  0.00     0.014 C 
ATOM     14  C   UNL     1      21.416   8.174  45.435  1.00  0.00     0.018 C 
ATOM     15  C   UNL     1      21.561   5.722  44.985  1.00  0.00     0.018 C 
ATOM     16  C   UNL     1      20.296   6.525  46.977  1.00  0.00     0.018 C 
ENDBRANCH   9  13
BRANCH  12  17
ATOM     17  C   UNL     1      26.334   7.608  48.291  1.00  0.00     0.088 A 
ATOM     18  C   UNL     1      27.426   7.427  47.468  1.00  0.00     0.050 A 
ATOM     19  N   UNL     1      26.401   8.269  49.464  1.00  0.00    -0.212 NA
ATOM     20  C   UNL     1      28.605   7.956  47.931  1.00  0.00     0.117 A 
ATOM     21  C   UNL     1      27.593   8.758  49.810  1.00  0.00     0.220 A 
ATOM     22  N   UNL     1      28.715   8.612  49.099  1.00  0.00    -0.222 NA
BRANCH  21  23
ATOM     23  N   UNL     1      27.681   9.421  51.017  1.00  0.00    -0.368 N 
ATOM     24  H   UNL     1      27.719   8.749  51.772  1.00  0.00     0.159 HD
ATOM     25  H   UNL     1      28.421  10.112  50.976  1.00  0.00     0.159 HD
ENDBRANCH  21  23
ENDBRANCH  12  17
ENDBRANCH   1   8
BRANCH   5  26
ATOM     26  N   UNL     1      23.672   3.080  52.305  1.00  0.00    -0.276 N 
ATOM     27  H   UNL     1      23.319   3.804  52.936  1.00  0.00     0.180 HD
BRANCH  26  28
ATOM     28  S   UNL     1      22.427   1.995  51.911  1.00  0.00     0.267 S 
ATOM     29  O   UNL     1      22.778   1.405  50.637  1.00  0.00    -0.201 OA
ATOM     30  O   UNL     1      21.167   2.688  52.072  1.00  0.00    -0.201 OA
BRANCH  28  31
ATOM     31  C   UNL     1      22.567   0.739  53.124  1.00  0.00     0.158 A 
ATOM     32  C   UNL     1      23.762   0.073  53.349  1.00  0.00     0.146 A 
ATOM     33  C   UNL     1      21.446   0.412  53.877  1.00  0.00     0.146 A 
ATOM     34  C   UNL     1      23.836  -0.926  54.322  1.00  0.00     0.041 A 
ATOM     35  C   UNL     1      21.506  -0.585  54.850  1.00  0.00     0.041 A 
ATOM     36  C   UNL     1      22.707  -1.258  55.074  1.00  0.00     0.006 A 
ATOM     37  F   UNL     1      24.871   0.347  52.652  1.00  0.00    -0.205 F 
ATOM     38  F   UNL     1      20.271   1.023  53.660  1.00  0.00    -0.205 F 
ENDBRANCH  28  31
ENDBRANCH  26  28
ENDBRANCH   5  26
TORSDOF 7
ENDMDL
MODEL 19
REMARK VINA RESULT:    -8.400      4.313      8.367
REMARK INTER + INTRA:         -12.601
REMARK INTER:                 -11.559
REMARK INTRA:                  -1.041
REMARK UNBOUND:                -1.009
REMARK SMILES CC(C)(C)c1nc(-c2cccc(NS(=O)(=O)c3c(F)cccc3F)c2F)c(-c2ccnc(N)n2)s1
REMARK SMILES IDX 8 1 9 2 10 3 11 4 12 5 25 6 26 7 7 8 5 9 6 10 35 11 27 12
REMARK SMILES IDX 2 13 1 14 3 15 4 16 28 17 29 18 34 19 30 20 32 21 31 22
REMARK SMILES IDX 33 23 13 26 14 28 15 29 16 30 17 31 18 32 23 33 20 34 22 35
REMARK SMILES IDX 21 36 19 37 24 38
REMARK H PARENT 33 24 33 25 13 27
ROOT
ATOM      1  C   UNL     1      25.099   7.463  48.734  1.00  0.00     0.040 A 
ATOM      2  C   UNL     1      24.457   8.388  49.570  1.00  0.00     0.013 A 
ATOM      3  C   UNL     1      24.039   8.012  50.850  1.00  0.00     0.003 A 
ATOM      4  C   UNL     1      24.275   6.715  51.314  1.00  0.00     0.030 A 
ATOM      5  C   UNL     1      24.942   5.799  50.506  1.00  0.00     0.085 A 
ATOM      6  C   UNL     1      25.341   6.175  49.218  1.00  0.00     0.156 A 
ATOM      7  F   UNL     1      25.998   5.278  48.465  1.00  0.00    -0.204 F 
ENDROOT
BRANCH   1   8
ATOM      8  C   UNL     1      25.534   7.881  47.412  1.00  0.00     0.094 A 
ATOM      9  C   UNL     1      25.153   8.488  45.306  1.00  0.00     0.099 A 
ATOM     10  N   UNL     1      24.587   8.071  46.420  1.00  0.00    -0.240 NA
ATOM     11  S   UNL     1      26.871   8.619  45.386  1.00  0.00    -0.116 S 
ATOM     12  C   UNL     1      26.849   8.088  47.023  1.00  0.00     0.081 A 
BRANCH   9  13
ATOM     13  C   UNL     1      24.382   8.806  44.025  1.00  0.00     0.014 C 
ATOM     14  C   UNL     1      23.587   7.570  43.568  1.00  0.00     0.018 C 
ATOM     15  C   UNL     1      23.378   9.951  44.290  1.00  0.00     0.018 C 
ATOM     16  C   UNL     1      25.328   9.264  42.898  1.00  0.00     0.018 C 
ENDBRANCH   9  13
BRANCH  12  17
ATOM     17  C   UNL     1      28.116   7.909  47.732  1.00  0.00     0.088 A 
ATOM     18  C   UNL     1      28.852   6.748  47.624  1.00  0.00     0.050 A 
ATOM     19  N   UNL     1      28.500   8.952  48.496  1.00  0.00    -0.212 NA
ATOM     20  C   UNL     1      30.007   6.712  48.366  1.00  0.00     0.117 A 
ATOM     21  C   UNL     1      29.648   8.819  49.161  1.00  0.00     0.220 A 
ATOM     22  N   UNL     1      30.417   7.726  49.146  1.00  0.00    -0.222 NA
BRANCH  21  23
ATOM     23  N   UNL     1      30.045   9.870  49.961  1.00  0.00    -0.368 N 
ATOM     24  H   UNL     1      29.666  10.736  49.598  1.00  0.00     0.159 HD
ATOM     25  H   UNL     1      29.855   9.655  50.932  1.00  0.00     0.159 HD
ENDBRANCH  21  23
ENDBRANCH  12  17
ENDBRANCH   1   8
BRANCH   5  26
ATOM     26  N   UNL     1      25.254   4.482  50.973  1.00  0.00    -0.276 N 
ATOM     27  H   UNL     1      25.676   4.430  51.903  1.00  0.00     0.180 HD
BRANCH  26  28
ATOM     28  S   UNL     1      24.080   3.267  50.798  1.00  0.00     0.267 S 
ATOM     29  O   UNL     1      24.043   2.925  49.393  1.00  0.00    -0.201 OA
ATOM     30  O   UNL     1      22.880   3.711  51.474  1.00  0.00    -0.201 OA
BRANCH  28  31
ATOM     31  C   UNL     1      24.765   1.899  51.651  1.00  0.00     0.158 A 
ATOM     32  C   UNL     1      24.043   1.198  52.605  1.00  0.00     0.146 A 
ATOM     33  C   UNL     1      26.065   1.510  51.351  1.00  0.00     0.146 A 
ATOM     34  C   UNL     1      24.623   0.114  53.268  1.00  0.00     0.041 A 
ATOM     35  C   UNL     1      26.656   0.431  52.008  1.00  0.00     0.041 A 
ATOM     36  C   UNL     1      25.932  -0.271  52.970  1.00  0.00     0.006 A 
ATOM     37  F   UNL     1      22.789   1.530  52.932  1.00  0.00    -0.205 F 
ATOM     38  F   UNL     1      26.794   2.188  50.451  1.00  0.00    -0.205 F 
ENDBRANCH  28  31
ENDBRANCH  26  28
ENDBRANCH   5  26
TORSDOF 7
ENDMDL
MODEL 20
REMARK VINA RESULT:    -8.386      2.847      5.605
REMARK INTER + INTRA:         -12.583
REMARK INTER:                 -11.533
REMARK INTRA:                  -1.049
REMARK UNBOUND:                -1.009
REMARK SMILES CC(C)(C)c1nc(-c2cccc(NS(=O)(=O)c3c(F)cccc3F)c2F)c(-c2ccnc(N)n2)s1
REMARK SMILES IDX 8 1 9 2 10 3 11 4 12 5 25 6 26 7 7 8 5 9 6 10 35 11 27 12
REMARK SMILES IDX 2 13 1 14 3 15 4 16 28 17 29 18 34 19 30 20 32 21 31 22
REMARK SMILES IDX 33 23 13 26 14 28 15 29 16 30 17 31 18 32 23 33 20 34 22 35
REMARK SMILES IDX 21 36 19 37 24 38
REMARK H PARENT 33 24 33 25 13 27
ROOT
ATOM      1  C   UNL     1      23.636   0.409  53.080  1.00  0.00     0.040 A 
ATOM      2  C   UNL     1      23.160  -0.199  54.250  1.00  0.00     0.013 A 
ATOM      3  C   UNL     1      21.828  -0.616  54.338  1.00  0.00     0.003 A 
ATOM      4  C   UNL     1      20.965  -0.447  53.252  1.00  0.00     0.030 A 
ATOM      5  C   UNL     1      21.436   0.124  52.073  1.00  0.00     0.085 A 
ATOM      6  C   UNL     1      22.765   0.557  51.997  1.00  0.00     0.156 A 
ATOM      7  F   UNL     1      23.199   1.089  50.844  1.00  0.00    -0.204 F 
ENDROOT
BRANCH   1   8
ATOM      8  C   UNL     1      25.027   0.823  53.009  1.00  0.00     0.094 A 
ATOM      9  C   UNL     1      27.209   0.472  53.263  1.00  0.00     0.099 A 
ATOM     10  N   UNL     1      26.013  -0.050  53.440  1.00  0.00    -0.240 NA
ATOM     11  S   UNL     1      27.201   2.070  52.615  1.00  0.00    -0.116 S 
ATOM     12  C   UNL     1      25.481   2.056  52.563  1.00  0.00     0.081 A 
BRANCH   9  13
ATOM     13  C   UNL     1      28.512  -0.243  53.622  1.00  0.00     0.014 C 
ATOM     14  C   UNL     1      29.710   0.506  53.011  1.00  0.00     0.018 C 
ATOM     15  C   UNL     1      28.691  -0.263  55.157  1.00  0.00     0.018 C 
ATOM     16  C   UNL     1      28.505  -1.704  53.131  1.00  0.00     0.018 C 
ENDBRANCH   9  13
BRANCH  12  17
ATOM     17  C   UNL     1      24.770   3.255  52.121  1.00  0.00     0.088 A 
ATOM     18  C   UNL     1      23.785   3.841  52.887  1.00  0.00     0.050 A 
ATOM     19  N   UNL     1      25.143   3.732  50.916  1.00  0.00    -0.212 NA
ATOM     20  C   UNL     1      23.188   4.946  52.334  1.00  0.00     0.117 A 
ATOM     21  C   UNL     1      24.510   4.822  50.480  1.00  0.00     0.220 A 
ATOM     22  N   UNL     1      23.524   5.446  51.133  1.00  0.00    -0.222 NA
BRANCH  21  23
ATOM     23  N   UNL     1      24.868   5.313  49.241  1.00  0.00    -0.368 N 
ATOM     24  H   UNL     1      25.121   6.289  49.323  1.00  0.00     0.159 HD
ATOM     25  H   UNL     1      25.545   4.695  48.810  1.00  0.00     0.159 HD
ENDBRANCH  21  23
ENDBRANCH  12  17
ENDBRANCH   1   8
BRANCH   5  26
ATOM     26  N   UNL     1      20.596   0.257  50.922  1.00  0.00    -0.276 N 
ATOM     27  H   UNL     1      19.984  -0.539  50.726  1.00  0.00     0.180 HD
BRANCH  26  28
ATOM     28  S   UNL     1      19.744   1.711  50.710  1.00  0.00     0.267 S 
ATOM     29  O   UNL     1      19.898   2.464  51.936  1.00  0.00    -0.201 OA
ATOM     30  O   UNL     1      18.424   1.383  50.215  1.00  0.00    -0.201 OA
BRANCH  28  31
ATOM     31  C   UNL     1      20.649   2.548  49.466  1.00  0.00     0.158 A 
ATOM     32  C   UNL     1      21.402   1.863  48.525  1.00  0.00     0.146 A 
ATOM     33  C   UNL     1      20.601   3.937  49.428  1.00  0.00     0.146 A 
ATOM     34  C   UNL     1      22.114   2.564  47.550  1.00  0.00     0.041 A 
ATOM     35  C   UNL     1      21.310   4.649  48.461  1.00  0.00     0.041 A 
ATOM     36  C   UNL     1      22.070   3.960  47.517  1.00  0.00     0.006 A 
ATOM     37  F   UNL     1      21.484   0.527  48.517  1.00  0.00    -0.205 F 
ATOM     38  F   UNL     1      19.902   4.625  50.344  1.00  0.00    -0.205 F 
ENDBRANCH  28  31
ENDBRANCH  26  28
ENDBRANCH   5  26
TORSDOF 7
ENDMDL
