MODEL 1
REMARK VINA RESULT:    -7.780      0.000      0.000
REMARK INTER + INTRA:         -13.359
REMARK INTER:                 -12.328
REMARK INTRA:                  -1.030
REMARK UNBOUND:                -1.030
REMARK SMILES C#Cc1cccc(Nc2ncnc3cc(OCCOC)c(OCCOC)cc23)c1
REMARK SMILES IDX 9 1 10 2 11 3 12 4 13 5 14 6 15 7 21 8 27 9 28 10 8 11 7 13
REMARK SMILES IDX 2 14 3 15 4 16 29 17 5 18 6 19 1 20 22 21 23 22 24 23 25 24
REMARK SMILES IDX 26 25 16 26 17 27 18 28 19 29 20 30
REMARK H PARENT 8 12
ROOT
ATOM      1  C   UNL     1      22.206   1.088  52.989  1.00  0.00     0.141 A 
ATOM      2  N   UNL     1      21.438   0.364  53.814  1.00  0.00    -0.219 NA
ATOM      3  C   UNL     1      21.842  -0.680  54.549  1.00  0.00     0.224 A 
ATOM      4  N   UNL     1      23.129  -1.058  54.471  1.00  0.00    -0.236 NA
ATOM      5  C   UNL     1      23.966  -0.386  53.667  1.00  0.00     0.080 A 
ATOM      6  C   UNL     1      25.289  -0.808  53.612  1.00  0.00     0.079 A 
ATOM      7  C   UNL     1      26.239  -0.203  52.828  1.00  0.00     0.163 A 
ATOM      8  C   UNL     1      25.775   0.891  52.071  1.00  0.00     0.162 A 
ATOM      9  C   UNL     1      24.467   1.311  52.123  1.00  0.00     0.064 A 
ATOM     10  C   UNL     1      23.537   0.705  52.901  1.00  0.00     0.047 A 
ENDROOT
BRANCH   1  11
ATOM     11  N   UNL     1      21.740   2.189  52.225  1.00  0.00    -0.340 N 
ATOM     12  H   UNL     1      21.254   2.995  52.686  1.00  0.00     0.168 HD
BRANCH  11  13
ATOM     13  C   UNL     1      21.879   2.304  50.811  1.00  0.00     0.041 A 
ATOM     14  C   UNL     1      22.922   4.687  48.141  1.00  0.00    -0.070 C 
ATOM     15  C   UNL     1      22.448   3.478  48.794  1.00  0.00     0.026 A 
ATOM     16  C   UNL     1      22.136   2.400  48.016  1.00  0.00     0.017 A 
ATOM     17  C   UNL     1      22.326   3.445  50.183  1.00  0.00     0.043 A 
ATOM     18  C   UNL     1      21.684   1.238  48.628  1.00  0.00     0.003 A 
ATOM     19  C   UNL     1      21.572   1.232  49.999  1.00  0.00     0.026 A 
ATOM     20  C   UNL     1      23.316   5.693  47.604  1.00  0.00     0.010 C 
ENDBRANCH  11  13
ENDBRANCH   1  11
BRANCH   8  21
ATOM     21  O   UNL     1      26.678   1.557  51.254  1.00  0.00    -0.487 OA
BRANCH  21  22
ATOM     22  C   UNL     1      26.541   2.946  51.061  1.00  0.00     0.258 C 
BRANCH  22  23
ATOM     23  C   UNL     1      26.319   3.234  49.568  1.00  0.00     0.201 C 
BRANCH  23  24
ATOM     24  O   UNL     1      27.415   3.974  49.124  1.00  0.00    -0.381 OA
ATOM     25  C   UNL     1      27.000   5.240  48.774  1.00  0.00     0.195 C 
ENDBRANCH  23  24
ENDBRANCH  22  23
ENDBRANCH  21  22
ENDBRANCH   8  21
BRANCH   7  26
ATOM     26  O   UNL     1      27.538  -0.527  52.694  1.00  0.00    -0.487 OA
BRANCH  26  27
ATOM     27  C   UNL     1      28.487  -0.565  53.712  1.00  0.00     0.258 C 
BRANCH  27  28
ATOM     28  C   UNL     1      28.342   0.479  54.780  1.00  0.00     0.201 C 
BRANCH  28  29
ATOM     29  O   UNL     1      29.305   1.470  54.675  1.00  0.00    -0.381 OA
ATOM     30  C   UNL     1      28.895   2.471  53.823  1.00  0.00     0.195 C 
ENDBRANCH  28  29
ENDBRANCH  27  28
ENDBRANCH  26  27
ENDBRANCH   7  26
TORSDOF 10
ENDMDL
MODEL 2
REMARK VINA RESULT:    -7.738      3.337      6.000
REMARK INTER + INTRA:         -13.292
REMARK INTER:                 -12.102
REMARK INTRA:                  -1.190
REMARK UNBOUND:                -1.030
REMARK SMILES C#Cc1cccc(Nc2ncnc3cc(OCCOC)c(OCCOC)cc23)c1
REMARK SMILES IDX 9 1 10 2 11 3 12 4 13 5 14 6 15 7 21 8 27 9 28 10 8 11 7 13
REMARK SMILES IDX 2 14 3 15 4 16 29 17 5 18 6 19 1 20 22 21 23 22 24 23 25 24
REMARK SMILES IDX 26 25 16 26 17 27 18 28 19 29 20 30
REMARK H PARENT 8 12
ROOT
ATOM      1  C   UNL     1      26.209   2.592  50.845  1.00  0.00     0.141 A 
ATOM      2  N   UNL     1      27.319   2.475  51.587  1.00  0.00    -0.219 NA
ATOM      3  C   UNL     1      27.382   2.000  52.838  1.00  0.00     0.224 A 
ATOM      4  N   UNL     1      26.244   1.598  53.427  1.00  0.00    -0.236 NA
ATOM      5  C   UNL     1      25.087   1.682  52.754  1.00  0.00     0.080 A 
ATOM      6  C   UNL     1      23.930   1.257  53.398  1.00  0.00     0.079 A 
ATOM      7  C   UNL     1      22.689   1.293  52.816  1.00  0.00     0.163 A 
ATOM      8  C   UNL     1      22.665   1.798  51.501  1.00  0.00     0.162 A 
ATOM      9  C   UNL     1      23.807   2.219  50.860  1.00  0.00     0.064 A 
ATOM     10  C   UNL     1      25.029   2.179  51.446  1.00  0.00     0.047 A 
ENDROOT
BRANCH   1  11
ATOM     11  N   UNL     1      26.183   3.101  49.522  1.00  0.00    -0.340 N 
ATOM     12  H   UNL     1      25.897   2.493  48.718  1.00  0.00     0.168 HD
BRANCH  11  13
ATOM     13  C   UNL     1      26.531   4.437  49.167  1.00  0.00     0.041 A 
ATOM     14  C   UNL     1      29.318   6.478  47.766  1.00  0.00    -0.070 C 
ATOM     15  C   UNL     1      28.020   6.117  48.313  1.00  0.00     0.026 A 
ATOM     16  C   UNL     1      27.089   7.102  48.479  1.00  0.00     0.017 A 
ATOM     17  C   UNL     1      27.758   4.789  48.650  1.00  0.00     0.043 A 
ATOM     18  C   UNL     1      25.845   6.769  48.998  1.00  0.00     0.003 A 
ATOM     19  C   UNL     1      25.611   5.453  49.323  1.00  0.00     0.026 A 
ATOM     20  C   UNL     1      30.396   6.773  47.312  1.00  0.00     0.010 C 
ENDBRANCH  11  13
ENDBRANCH   1  11
BRANCH   8  21
ATOM     21  O   UNL     1      21.444   1.866  50.843  1.00  0.00    -0.487 OA
BRANCH  21  22
ATOM     22  C   UNL     1      20.918   3.124  50.489  1.00  0.00     0.258 C 
BRANCH  22  23
ATOM     23  C   UNL     1      20.606   3.923  51.764  1.00  0.00     0.201 C 
BRANCH  23  24
ATOM     24  O   UNL     1      19.344   3.522  52.203  1.00  0.00    -0.381 OA
ATOM     25  C   UNL     1      18.429   3.701  51.187  1.00  0.00     0.195 C 
ENDBRANCH  23  24
ENDBRANCH  22  23
ENDBRANCH  21  22
ENDBRANCH   8  21
BRANCH   7  26
ATOM     26  O   UNL     1      21.510   0.916  53.343  1.00  0.00    -0.487 OA
BRANCH  26  27
ATOM     27  C   UNL     1      21.329   0.097  54.453  1.00  0.00     0.258 C 
BRANCH  27  28
ATOM     28  C   UNL     1      21.272  -1.377  54.177  1.00  0.00     0.201 C 
BRANCH  28  29
ATOM     29  O   UNL     1      21.974  -2.112  55.119  1.00  0.00    -0.381 OA
ATOM     30  C   UNL     1      23.125  -1.458  55.499  1.00  0.00     0.195 C 
ENDBRANCH  28  29
ENDBRANCH  27  28
ENDBRANCH  26  27
ENDBRANCH   7  26
TORSDOF 10
ENDMDL
MODEL 3
REMARK VINA RESULT:    -7.653      3.086      5.588
REMARK INTER + INTRA:         -13.157
REMARK INTER:                 -11.911
REMARK INTRA:                  -1.246
REMARK UNBOUND:                -1.030
REMARK SMILES C#Cc1cccc(Nc2ncnc3cc(OCCOC)c(OCCOC)cc23)c1
REMARK SMILES IDX 9 1 10 2 11 3 12 4 13 5 14 6 15 7 21 8 27 9 28 10 8 11 7 13
REMARK SMILES IDX 2 14 3 15 4 16 29 17 5 18 6 19 1 20 22 21 23 22 24 23 25 24
REMARK SMILES IDX 26 25 16 26 17 27 18 28 19 29 20 30
REMARK H PARENT 8 12
ROOT
ATOM      1  C   UNL     1      26.385   2.486  51.014  1.00  0.00     0.141 A 
ATOM      2  N   UNL     1      27.442   2.444  51.837  1.00  0.00    -0.219 NA
ATOM      3  C   UNL     1      27.424   2.059  53.120  1.00  0.00     0.224 A 
ATOM      4  N   UNL     1      26.253   1.677  53.657  1.00  0.00    -0.236 NA
ATOM      5  C   UNL     1      25.146   1.690  52.901  1.00  0.00     0.080 A 
ATOM      6  C   UNL     1      23.953   1.288  53.492  1.00  0.00     0.079 A 
ATOM      7  C   UNL     1      22.755   1.260  52.824  1.00  0.00     0.163 A 
ATOM      8  C   UNL     1      22.816   1.670  51.478  1.00  0.00     0.162 A 
ATOM      9  C   UNL     1      23.994   2.068  50.889  1.00  0.00     0.064 A 
ATOM     10  C   UNL     1      25.172   2.093  51.560  1.00  0.00     0.047 A 
ENDROOT
BRANCH   1  11
ATOM     11  N   UNL     1      26.445   2.901  49.659  1.00  0.00    -0.340 N 
ATOM     12  H   UNL     1      26.377   2.203  48.880  1.00  0.00     0.168 HD
BRANCH  11  13
ATOM     13  C   UNL     1      26.599   4.254  49.238  1.00  0.00     0.041 A 
ATOM     14  C   UNL     1      29.085   6.614  47.773  1.00  0.00    -0.070 C 
ATOM     15  C   UNL     1      27.843   6.091  48.317  1.00  0.00     0.026 A 
ATOM     16  C   UNL     1      26.772   6.933  48.415  1.00  0.00     0.017 A 
ATOM     17  C   UNL     1      27.772   4.758  48.722  1.00  0.00     0.043 A 
ATOM     18  C   UNL     1      25.579   6.446  48.931  1.00  0.00     0.003 A 
ATOM     19  C   UNL     1      25.536   5.128  49.323  1.00  0.00     0.026 A 
ATOM     20  C   UNL     1      30.119   7.042  47.321  1.00  0.00     0.010 C 
ENDBRANCH  11  13
ENDBRANCH   1  11
BRANCH   8  21
ATOM     21  O   UNL     1      21.644   1.667  50.734  1.00  0.00    -0.487 OA
BRANCH  21  22
ATOM     22  C   UNL     1      21.544   2.494  49.597  1.00  0.00     0.258 C 
BRANCH  22  23
ATOM     23  C   UNL     1      21.621   1.630  48.330  1.00  0.00     0.201 C 
BRANCH  23  24
ATOM     24  O   UNL     1      22.267   2.388  47.353  1.00  0.00    -0.381 OA
ATOM     25  C   UNL     1      22.420   3.680  47.806  1.00  0.00     0.195 C 
ENDBRANCH  23  24
ENDBRANCH  22  23
ENDBRANCH  21  22
ENDBRANCH   8  21
BRANCH   7  26
ATOM     26  O   UNL     1      21.548   0.896  53.294  1.00  0.00    -0.487 OA
BRANCH  26  27
ATOM     27  C   UNL     1      21.303   0.114  54.419  1.00  0.00     0.258 C 
BRANCH  27  28
ATOM     28  C   UNL     1      21.228  -1.366  54.183  1.00  0.00     0.201 C 
BRANCH  28  29
ATOM     29  O   UNL     1      21.898  -2.085  55.159  1.00  0.00    -0.381 OA
ATOM     30  C   UNL     1      23.080  -1.468  55.504  1.00  0.00     0.195 C 
ENDBRANCH  28  29
ENDBRANCH  27  28
ENDBRANCH  26  27
ENDBRANCH   7  26
TORSDOF 10
ENDMDL
MODEL 4
REMARK VINA RESULT:    -7.632      2.356      5.050
REMARK INTER + INTRA:         -13.124
REMARK INTER:                 -11.502
REMARK INTRA:                  -1.622
REMARK UNBOUND:                -1.030
REMARK SMILES C#Cc1cccc(Nc2ncnc3cc(OCCOC)c(OCCOC)cc23)c1
REMARK SMILES IDX 9 1 10 2 11 3 12 4 13 5 14 6 15 7 21 8 27 9 28 10 8 11 7 13
REMARK SMILES IDX 2 14 3 15 4 16 29 17 5 18 6 19 1 20 22 21 23 22 24 23 25 24
REMARK SMILES IDX 26 25 16 26 17 27 18 28 19 29 20 30
REMARK H PARENT 8 12
ROOT
ATOM      1  C   UNL     1      23.119   2.915  51.763  1.00  0.00     0.141 A 
ATOM      2  N   UNL     1      23.384   3.933  50.933  1.00  0.00    -0.219 NA
ATOM      3  C   UNL     1      24.553   4.165  50.322  1.00  0.00     0.224 A 
ATOM      4  N   UNL     1      25.570   3.316  50.544  1.00  0.00    -0.236 NA
ATOM      5  C   UNL     1      25.389   2.270  51.364  1.00  0.00     0.080 A 
ATOM      6  C   UNL     1      26.466   1.415  51.570  1.00  0.00     0.079 A 
ATOM      7  C   UNL     1      26.406   0.313  52.385  1.00  0.00     0.163 A 
ATOM      8  C   UNL     1      25.159   0.103  53.009  1.00  0.00     0.162 A 
ATOM      9  C   UNL     1      24.092   0.947  52.807  1.00  0.00     0.064 A 
ATOM     10  C   UNL     1      24.164   2.034  51.999  1.00  0.00     0.047 A 
ENDROOT
BRANCH   1  11
ATOM     11  N   UNL     1      21.866   2.704  52.393  1.00  0.00    -0.340 N 
ATOM     12  H   UNL     1      21.661   3.119  53.333  1.00  0.00     0.168 HD
BRANCH  11  13
ATOM     13  C   UNL     1      20.804   1.936  51.833  1.00  0.00     0.041 A 
ATOM     14  C   UNL     1      18.344  -0.735  52.675  1.00  0.00    -0.070 C 
ATOM     15  C   UNL     1      19.071   0.275  51.924  1.00  0.00     0.026 A 
ATOM     16  C   UNL     1      18.709   0.506  50.629  1.00  0.00     0.017 A 
ATOM     17  C   UNL     1      20.110   0.977  52.536  1.00  0.00     0.043 A 
ATOM     18  C   UNL     1      19.394   1.470  49.901  1.00  0.00     0.003 A 
ATOM     19  C   UNL     1      20.414   2.148  50.527  1.00  0.00     0.026 A 
ATOM     20  C   UNL     1      17.743  -1.572  53.303  1.00  0.00     0.010 C 
ENDBRANCH  11  13
ENDBRANCH   1  11
BRANCH   8  21
ATOM     21  O   UNL     1      25.018  -0.993  53.848  1.00  0.00    -0.487 OA
BRANCH  21  22
ATOM     22  C   UNL     1      24.687  -0.789  55.202  1.00  0.00     0.258 C 
BRANCH  22  23
ATOM     23  C   UNL     1      23.492  -1.680  55.575  1.00  0.00     0.201 C 
BRANCH  23  24
ATOM     24  O   UNL     1      22.334  -0.954  55.295  1.00  0.00    -0.381 OA
ATOM     25  C   UNL     1      21.515  -1.699  54.474  1.00  0.00     0.195 C 
ENDBRANCH  23  24
ENDBRANCH  22  23
ENDBRANCH  21  22
ENDBRANCH   8  21
BRANCH   7  26
ATOM     26  O   UNL     1      27.379  -0.575  52.660  1.00  0.00    -0.487 OA
BRANCH  26  27
ATOM     27  C   UNL     1      28.570  -0.310  53.329  1.00  0.00     0.258 C 
BRANCH  27  28
ATOM     28  C   UNL     1      28.451  -0.069  54.805  1.00  0.00     0.201 C 
BRANCH  28  29
ATOM     29  O   UNL     1      28.538   1.276  55.123  1.00  0.00    -0.381 OA
ATOM     30  C   UNL     1      29.213   1.973  54.145  1.00  0.00     0.195 C 
ENDBRANCH  28  29
ENDBRANCH  27  28
ENDBRANCH  26  27
ENDBRANCH   7  26
TORSDOF 10
ENDMDL
MODEL 5
REMARK VINA RESULT:    -7.611      3.247      5.506
REMARK INTER + INTRA:         -13.090
REMARK INTER:                 -11.568
REMARK INTRA:                  -1.522
REMARK UNBOUND:                -1.030
REMARK SMILES C#Cc1cccc(Nc2ncnc3cc(OCCOC)c(OCCOC)cc23)c1
REMARK SMILES IDX 9 1 10 2 11 3 12 4 13 5 14 6 15 7 21 8 27 9 28 10 8 11 7 13
REMARK SMILES IDX 2 14 3 15 4 16 29 17 5 18 6 19 1 20 22 21 23 22 24 23 25 24
REMARK SMILES IDX 26 25 16 26 17 27 18 28 19 29 20 30
REMARK H PARENT 8 12
ROOT
ATOM      1  C   UNL     1      26.465   2.501  51.109  1.00  0.00     0.141 A 
ATOM      2  N   UNL     1      27.503   2.420  51.953  1.00  0.00    -0.219 NA
ATOM      3  C   UNL     1      27.452   1.990  53.221  1.00  0.00     0.224 A 
ATOM      4  N   UNL     1      26.266   1.600  53.717  1.00  0.00    -0.236 NA
ATOM      5  C   UNL     1      25.176   1.651  52.938  1.00  0.00     0.080 A 
ATOM      6  C   UNL     1      23.967   1.240  53.488  1.00  0.00     0.079 A 
ATOM      7  C   UNL     1      22.784   1.246  52.793  1.00  0.00     0.163 A 
ATOM      8  C   UNL     1      22.879   1.704  51.464  1.00  0.00     0.162 A 
ATOM      9  C   UNL     1      24.074   2.110  50.916  1.00  0.00     0.064 A 
ATOM     10  C   UNL     1      25.236   2.101  51.613  1.00  0.00     0.047 A 
ENDROOT
BRANCH   1  11
ATOM     11  N   UNL     1      26.559   2.963  49.771  1.00  0.00    -0.340 N 
ATOM     12  H   UNL     1      26.593   2.287  48.971  1.00  0.00     0.168 HD
BRANCH  11  13
ATOM     13  C   UNL     1      26.617   4.337  49.396  1.00  0.00     0.041 A 
ATOM     14  C   UNL     1      24.766   7.556  49.722  1.00  0.00    -0.070 C 
ATOM     15  C   UNL     1      25.787   6.591  49.350  1.00  0.00     0.026 A 
ATOM     16  C   UNL     1      26.856   7.025  48.620  1.00  0.00     0.017 A 
ATOM     17  C   UNL     1      25.654   5.259  49.743  1.00  0.00     0.043 A 
ATOM     18  C   UNL     1      27.838   6.113  48.259  1.00  0.00     0.003 A 
ATOM     19  C   UNL     1      27.684   4.806  48.659  1.00  0.00     0.026 A 
ATOM     20  C   UNL     1      23.917   8.354  50.035  1.00  0.00     0.010 C 
ENDBRANCH  11  13
ENDBRANCH   1  11
BRANCH   8  21
ATOM     21  O   UNL     1      21.725   1.737  50.694  1.00  0.00    -0.487 OA
BRANCH  21  22
ATOM     22  C   UNL     1      21.325   2.952  50.101  1.00  0.00     0.258 C 
BRANCH  22  23
ATOM     23  C   UNL     1      20.639   3.833  51.157  1.00  0.00     0.201 C 
BRANCH  23  24
ATOM     24  O   UNL     1      21.083   5.140  50.952  1.00  0.00    -0.381 OA
ATOM     25  C   UNL     1      22.240   5.347  51.672  1.00  0.00     0.195 C 
ENDBRANCH  23  24
ENDBRANCH  22  23
ENDBRANCH  21  22
ENDBRANCH   8  21
BRANCH   7  26
ATOM     26  O   UNL     1      21.564   0.878  53.222  1.00  0.00    -0.487 OA
BRANCH  26  27
ATOM     27  C   UNL     1      21.285   0.092  54.337  1.00  0.00     0.258 C 
BRANCH  27  28
ATOM     28  C   UNL     1      21.255  -1.390  54.101  1.00  0.00     0.201 C 
BRANCH  28  29
ATOM     29  O   UNL     1      21.875  -2.093  55.121  1.00  0.00    -0.381 OA
ATOM     30  C   UNL     1      23.047  -1.479  55.503  1.00  0.00     0.195 C 
ENDBRANCH  28  29
ENDBRANCH  27  28
ENDBRANCH  26  27
ENDBRANCH   7  26
TORSDOF 10
ENDMDL
MODEL 6
REMARK VINA RESULT:    -7.477      2.378      5.550
REMARK INTER + INTRA:         -12.879
REMARK INTER:                 -12.202
REMARK INTRA:                  -0.676
REMARK UNBOUND:                -1.030
REMARK SMILES C#Cc1cccc(Nc2ncnc3cc(OCCOC)c(OCCOC)cc23)c1
REMARK SMILES IDX 9 1 10 2 11 3 12 4 13 5 14 6 15 7 21 8 27 9 28 10 8 11 7 13
REMARK SMILES IDX 2 14 3 15 4 16 29 17 5 18 6 19 1 20 22 21 23 22 24 23 25 24
REMARK SMILES IDX 26 25 16 26 17 27 18 28 19 29 20 30
REMARK H PARENT 8 12
ROOT
ATOM      1  C   UNL     1      24.589   3.280  50.411  1.00  0.00     0.141 A 
ATOM      2  N   UNL     1      23.548   4.122  50.364  1.00  0.00    -0.219 NA
ATOM      3  C   UNL     1      22.486   4.105  51.182  1.00  0.00     0.224 A 
ATOM      4  N   UNL     1      22.435   3.168  52.143  1.00  0.00    -0.236 NA
ATOM      5  C   UNL     1      23.437   2.285  52.258  1.00  0.00     0.080 A 
ATOM      6  C   UNL     1      23.347   1.330  53.265  1.00  0.00     0.079 A 
ATOM      7  C   UNL     1      24.306   0.374  53.482  1.00  0.00     0.163 A 
ATOM      8  C   UNL     1      25.406   0.426  52.603  1.00  0.00     0.162 A 
ATOM      9  C   UNL     1      25.499   1.370  51.606  1.00  0.00     0.064 A 
ATOM     10  C   UNL     1      24.544   2.309  51.400  1.00  0.00     0.047 A 
ENDROOT
BRANCH   1  11
ATOM     11  N   UNL     1      25.696   3.331  49.526  1.00  0.00    -0.340 N 
ATOM     12  H   UNL     1      26.086   2.454  49.103  1.00  0.00     0.168 HD
BRANCH  11  13
ATOM     13  C   UNL     1      26.364   4.529  49.139  1.00  0.00     0.041 A 
ATOM     14  C   UNL     1      29.674   5.821  48.013  1.00  0.00    -0.070 C 
ATOM     15  C   UNL     1      28.272   5.784  48.396  1.00  0.00     0.026 A 
ATOM     16  C   UNL     1      27.561   6.949  48.369  1.00  0.00     0.017 A 
ATOM     17  C   UNL     1      27.691   4.574  48.776  1.00  0.00     0.043 A 
ATOM     18  C   UNL     1      26.221   6.927  48.731  1.00  0.00     0.003 A 
ATOM     19  C   UNL     1      25.672   5.722  49.102  1.00  0.00     0.026 A 
ATOM     20  C   UNL     1      30.838   5.846  47.696  1.00  0.00     0.010 C 
ENDBRANCH  11  13
ENDBRANCH   1  11
BRANCH   8  21
ATOM     21  O   UNL     1      26.421  -0.508  52.760  1.00  0.00    -0.487 OA
BRANCH  21  22
ATOM     22  C   UNL     1      27.722  -0.069  53.078  1.00  0.00     0.258 C 
BRANCH  22  23
ATOM     23  C   UNL     1      27.857   0.064  54.603  1.00  0.00     0.201 C 
BRANCH  23  24
ATOM     24  O   UNL     1      28.507   1.273  54.855  1.00  0.00    -0.381 OA
ATOM     25  C   UNL     1      28.731   1.928  53.663  1.00  0.00     0.195 C 
ENDBRANCH  23  24
ENDBRANCH  22  23
ENDBRANCH  21  22
ENDBRANCH   8  21
BRANCH   7  26
ATOM     26  O   UNL     1      24.321  -0.595  54.415  1.00  0.00    -0.487 OA
BRANCH  26  27
ATOM     27  C   UNL     1      23.223  -1.071  55.126  1.00  0.00     0.258 C 
BRANCH  27  28
ATOM     28  C   UNL     1      22.145  -1.718  54.307  1.00  0.00     0.201 C 
BRANCH  28  29
ATOM     29  O   UNL     1      20.877  -1.353  54.732  1.00  0.00    -0.381 OA
ATOM     30  C   UNL     1      20.214  -0.643  53.756  1.00  0.00     0.195 C 
ENDBRANCH  28  29
ENDBRANCH  27  28
ENDBRANCH  26  27
ENDBRANCH   7  26
TORSDOF 10
ENDMDL
MODEL 7
REMARK VINA RESULT:    -7.327      4.021      7.742
REMARK INTER + INTRA:         -12.641
REMARK INTER:                 -11.607
REMARK INTRA:                  -1.034
REMARK UNBOUND:                -1.030
REMARK SMILES C#Cc1cccc(Nc2ncnc3cc(OCCOC)c(OCCOC)cc23)c1
REMARK SMILES IDX 9 1 10 2 11 3 12 4 13 5 14 6 15 7 21 8 27 9 28 10 8 11 7 13
REMARK SMILES IDX 2 14 3 15 4 16 29 17 5 18 6 19 1 20 22 21 23 22 24 23 25 24
REMARK SMILES IDX 26 25 16 26 17 27 18 28 19 29 20 30
REMARK H PARENT 8 12
ROOT
ATOM      1  C   UNL     1      23.881  -0.191  53.616  1.00  0.00     0.141 A 
ATOM      2  N   UNL     1      24.231  -0.808  54.753  1.00  0.00    -0.219 NA
ATOM      3  C   UNL     1      23.408  -1.485  55.565  1.00  0.00     0.224 A 
ATOM      4  N   UNL     1      22.108  -1.565  55.236  1.00  0.00    -0.236 NA
ATOM      5  C   UNL     1      21.674  -0.973  54.113  1.00  0.00     0.080 A 
ATOM      6  C   UNL     1      20.322  -1.078  53.807  1.00  0.00     0.079 A 
ATOM      7  C   UNL     1      19.759  -0.517  52.690  1.00  0.00     0.163 A 
ATOM      8  C   UNL     1      20.657   0.185  51.860  1.00  0.00     0.162 A 
ATOM      9  C   UNL     1      21.996   0.290  52.160  1.00  0.00     0.064 A 
ATOM     10  C   UNL     1      22.541  -0.269  53.268  1.00  0.00     0.047 A 
ENDROOT
BRANCH   1  11
ATOM     11  N   UNL     1      24.784   0.516  52.782  1.00  0.00    -0.340 N 
ATOM     12  H   UNL     1      24.473   0.897  51.856  1.00  0.00     0.168 HD
BRANCH  11  13
ATOM     13  C   UNL     1      26.149   0.769  53.105  1.00  0.00     0.041 A 
ATOM     14  C   UNL     1      29.417  -0.948  53.618  1.00  0.00    -0.070 C 
ATOM     15  C   UNL     1      28.421   0.104  53.514  1.00  0.00     0.026 A 
ATOM     16  C   UNL     1      28.816   1.395  53.720  1.00  0.00     0.017 A 
ATOM     17  C   UNL     1      27.100  -0.222  53.207  1.00  0.00     0.043 A 
ATOM     18  C   UNL     1      27.874   2.410  53.621  1.00  0.00     0.003 A 
ATOM     19  C   UNL     1      26.579   2.062  53.319  1.00  0.00     0.026 A 
ATOM     20  C   UNL     1      30.241  -1.827  53.703  1.00  0.00     0.010 C 
ENDBRANCH  11  13
ENDBRANCH   1  11
BRANCH   8  21
ATOM     21  O   UNL     1      20.163   0.780  50.708  1.00  0.00    -0.487 OA
BRANCH  21  22
ATOM     22  C   UNL     1      20.414   2.147  50.474  1.00  0.00     0.258 C 
BRANCH  22  23
ATOM     23  C   UNL     1      19.488   2.995  51.360  1.00  0.00     0.201 C 
BRANCH  23  24
ATOM     24  O   UNL     1      18.286   3.151  50.669  1.00  0.00    -0.381 OA
ATOM     25  C   UNL     1      17.243   2.735  51.467  1.00  0.00     0.195 C 
ENDBRANCH  23  24
ENDBRANCH  22  23
ENDBRANCH  21  22
ENDBRANCH   8  21
BRANCH   7  26
ATOM     26  O   UNL     1      18.472  -0.550  52.299  1.00  0.00    -0.487 OA
BRANCH  26  27
ATOM     27  C   UNL     1      17.378  -0.884  53.092  1.00  0.00     0.258 C 
BRANCH  27  28
ATOM     28  C   UNL     1      16.823  -2.264  52.892  1.00  0.00     0.201 C 
BRANCH  28  29
ATOM     29  O   UNL     1      17.547  -3.223  53.582  1.00  0.00    -0.381 OA
ATOM     30  C   UNL     1      16.872  -4.423  53.617  1.00  0.00     0.195 C 
ENDBRANCH  28  29
ENDBRANCH  27  28
ENDBRANCH  26  27
ENDBRANCH   7  26
TORSDOF 10
ENDMDL
MODEL 8
REMARK VINA RESULT:    -7.259      2.698      5.972
REMARK INTER + INTRA:         -12.534
REMARK INTER:                 -11.415
REMARK INTRA:                  -1.119
REMARK UNBOUND:                -1.030
REMARK SMILES C#Cc1cccc(Nc2ncnc3cc(OCCOC)c(OCCOC)cc23)c1
REMARK SMILES IDX 9 1 10 2 11 3 12 4 13 5 14 6 15 7 21 8 27 9 28 10 8 11 7 13
REMARK SMILES IDX 2 14 3 15 4 16 29 17 5 18 6 19 1 20 22 21 23 22 24 23 25 24
REMARK SMILES IDX 26 25 16 26 17 27 18 28 19 29 20 30
REMARK H PARENT 8 12
ROOT
ATOM      1  C   UNL     1      24.118   4.365  49.791  1.00  0.00     0.141 A 
ATOM      2  N   UNL     1      23.434   4.699  48.689  1.00  0.00    -0.219 NA
ATOM      3  C   UNL     1      22.383   4.037  48.186  1.00  0.00     0.224 A 
ATOM      4  N   UNL     1      21.958   2.933  48.823  1.00  0.00    -0.236 NA
ATOM      5  C   UNL     1      22.589   2.530  49.935  1.00  0.00     0.080 A 
ATOM      6  C   UNL     1      22.120   1.383  50.566  1.00  0.00     0.079 A 
ATOM      7  C   UNL     1      22.681   0.870  51.708  1.00  0.00     0.163 A 
ATOM      8  C   UNL     1      23.782   1.595  52.206  1.00  0.00     0.162 A 
ATOM      9  C   UNL     1      24.249   2.730  51.585  1.00  0.00     0.064 A 
ATOM     10  C   UNL     1      23.686   3.227  50.456  1.00  0.00     0.047 A 
ENDROOT
BRANCH   1  11
ATOM     11  N   UNL     1      25.227   5.094  50.293  1.00  0.00    -0.340 N 
ATOM     12  H   UNL     1      25.298   5.331  51.311  1.00  0.00     0.168 HD
BRANCH  11  13
ATOM     13  C   UNL     1      26.312   5.560  49.494  1.00  0.00     0.041 A 
ATOM     14  C   UNL     1      27.675   8.635  47.889  1.00  0.00    -0.070 C 
ATOM     15  C   UNL     1      27.543   7.252  48.315  1.00  0.00     0.026 A 
ATOM     16  C   UNL     1      28.511   6.363  47.944  1.00  0.00     0.017 A 
ATOM     17  C   UNL     1      26.445   6.868  49.085  1.00  0.00     0.043 A 
ATOM     18  C   UNL     1      28.397   5.039  48.346  1.00  0.00     0.003 A 
ATOM     19  C   UNL     1      27.305   4.686  49.104  1.00  0.00     0.026 A 
ATOM     20  C   UNL     1      27.781   9.785  47.539  1.00  0.00     0.010 C 
ENDBRANCH  11  13
ENDBRANCH   1  11
BRANCH   8  21
ATOM     21  O   UNL     1      24.403   1.140  53.361  1.00  0.00    -0.487 OA
BRANCH  21  22
ATOM     22  C   UNL     1      25.600   0.402  53.257  1.00  0.00     0.258 C 
BRANCH  22  23
ATOM     23  C   UNL     1      26.208   0.217  54.656  1.00  0.00     0.201 C 
BRANCH  23  24
ATOM     24  O   UNL     1      27.266   1.120  54.767  1.00  0.00    -0.381 OA
ATOM     25  C   UNL     1      28.437   0.501  54.387  1.00  0.00     0.195 C 
ENDBRANCH  23  24
ENDBRANCH  22  23
ENDBRANCH  21  22
ENDBRANCH   8  21
BRANCH   7  26
ATOM     26  O   UNL     1      22.316  -0.227  52.396  1.00  0.00    -0.487 OA
BRANCH  26  27
ATOM     27  C   UNL     1      21.161  -0.375  53.158  1.00  0.00     0.258 C 
BRANCH  27  28
ATOM     28  C   UNL     1      21.345  -0.295  54.646  1.00  0.00     0.201 C 
BRANCH  28  29
ATOM     29  O   UNL     1      21.749  -1.505  55.187  1.00  0.00    -0.381 OA
ATOM     30  C   UNL     1      23.083  -1.474  55.527  1.00  0.00     0.195 C 
ENDBRANCH  28  29
ENDBRANCH  27  28
ENDBRANCH  26  27
ENDBRANCH   7  26
TORSDOF 10
ENDMDL
MODEL 9
REMARK VINA RESULT:    -7.254      2.700      4.659
REMARK INTER + INTRA:         -12.526
REMARK INTER:                 -11.098
REMARK INTRA:                  -1.428
REMARK UNBOUND:                -1.030
REMARK SMILES C#Cc1cccc(Nc2ncnc3cc(OCCOC)c(OCCOC)cc23)c1
REMARK SMILES IDX 9 1 10 2 11 3 12 4 13 5 14 6 15 7 21 8 27 9 28 10 8 11 7 13
REMARK SMILES IDX 2 14 3 15 4 16 29 17 5 18 6 19 1 20 22 21 23 22 24 23 25 24
REMARK SMILES IDX 26 25 16 26 17 27 18 28 19 29 20 30
REMARK H PARENT 8 12
ROOT
ATOM      1  C   UNL     1      24.154   4.028  51.647  1.00  0.00     0.141 A 
ATOM      2  N   UNL     1      24.711   4.797  50.702  1.00  0.00    -0.219 NA
ATOM      3  C   UNL     1      25.816   4.506  50.002  1.00  0.00     0.224 A 
ATOM      4  N   UNL     1      26.444   3.345  50.253  1.00  0.00    -0.236 NA
ATOM      5  C   UNL     1      25.953   2.517  51.186  1.00  0.00     0.080 A 
ATOM      6  C   UNL     1      26.632   1.326  51.417  1.00  0.00     0.079 A 
ATOM      7  C   UNL     1      26.229   0.399  52.345  1.00  0.00     0.163 A 
ATOM      8  C   UNL     1      25.062   0.741  53.058  1.00  0.00     0.162 A 
ATOM      9  C   UNL     1      24.388   1.918  52.832  1.00  0.00     0.064 A 
ATOM     10  C   UNL     1      24.796   2.827  51.913  1.00  0.00     0.047 A 
ENDROOT
BRANCH   1  11
ATOM     11  N   UNL     1      22.982   4.372  52.367  1.00  0.00    -0.340 N 
ATOM     12  H   UNL     1      23.043   4.785  53.328  1.00  0.00     0.168 HD
BRANCH  11  13
ATOM     13  C   UNL     1      21.655   4.195  51.876  1.00  0.00     0.041 A 
ATOM     14  C   UNL     1      19.230   5.556  49.394  1.00  0.00    -0.070 C 
ATOM     15  C   UNL     1      19.802   4.730  50.444  1.00  0.00     0.026 A 
ATOM     16  C   UNL     1      19.037   3.731  50.973  1.00  0.00     0.017 A 
ATOM     17  C   UNL     1      21.104   4.973  50.882  1.00  0.00     0.043 A 
ATOM     18  C   UNL     1      19.572   2.933  51.976  1.00  0.00     0.003 A 
ATOM     19  C   UNL     1      20.858   3.193  52.390  1.00  0.00     0.026 A 
ATOM     20  C   UNL     1      18.760   6.244  48.521  1.00  0.00     0.010 C 
ENDBRANCH  11  13
ENDBRANCH   1  11
BRANCH   8  21
ATOM     21  O   UNL     1      24.590  -0.148  54.014  1.00  0.00    -0.487 OA
BRANCH  21  22
ATOM     22  C   UNL     1      23.334  -0.760  53.827  1.00  0.00     0.258 C 
BRANCH  22  23
ATOM     23  C   UNL     1      22.829  -1.308  55.171  1.00  0.00     0.201 C 
BRANCH  23  24
ATOM     24  O   UNL     1      21.435  -1.311  55.117  1.00  0.00    -0.381 OA
ATOM     25  C   UNL     1      21.003  -0.211  54.408  1.00  0.00     0.195 C 
ENDBRANCH  23  24
ENDBRANCH  22  23
ENDBRANCH  21  22
ENDBRANCH   8  21
BRANCH   7  26
ATOM     26  O   UNL     1      26.806  -0.776  52.654  1.00  0.00    -0.487 OA
BRANCH  26  27
ATOM     27  C   UNL     1      28.076  -0.953  53.195  1.00  0.00     0.258 C 
BRANCH  27  28
ATOM     28  C   UNL     1      28.433  -0.047  54.337  1.00  0.00     0.201 C 
BRANCH  28  29
ATOM     29  O   UNL     1      29.461   0.823  54.011  1.00  0.00    -0.381 OA
ATOM     30  C   UNL     1      29.049   2.134  54.107  1.00  0.00     0.195 C 
ENDBRANCH  28  29
ENDBRANCH  27  28
ENDBRANCH  26  27
ENDBRANCH   7  26
TORSDOF 10
ENDMDL
MODEL 10
REMARK VINA RESULT:    -7.233      1.891      2.456
REMARK INTER + INTRA:         -12.492
REMARK INTER:                 -11.100
REMARK INTRA:                  -1.392
REMARK UNBOUND:                -1.030
REMARK SMILES C#Cc1cccc(Nc2ncnc3cc(OCCOC)c(OCCOC)cc23)c1
REMARK SMILES IDX 9 1 10 2 11 3 12 4 13 5 14 6 15 7 21 8 27 9 28 10 8 11 7 13
REMARK SMILES IDX 2 14 3 15 4 16 29 17 5 18 6 19 1 20 22 21 23 22 24 23 25 24
REMARK SMILES IDX 26 25 16 26 17 27 18 28 19 29 20 30
REMARK H PARENT 8 12
ROOT
ATOM      1  C   UNL     1      22.424  -0.469  53.052  1.00  0.00     0.141 A 
ATOM      2  N   UNL     1      21.825  -1.239  53.971  1.00  0.00    -0.219 NA
ATOM      3  C   UNL     1      22.389  -1.703  55.095  1.00  0.00     0.224 A 
ATOM      4  N   UNL     1      23.669  -1.383  55.347  1.00  0.00    -0.236 NA
ATOM      5  C   UNL     1      24.341  -0.617  54.477  1.00  0.00     0.080 A 
ATOM      6  C   UNL     1      25.665  -0.309  54.773  1.00  0.00     0.079 A 
ATOM      7  C   UNL     1      26.456   0.465  53.962  1.00  0.00     0.163 A 
ATOM      8  C   UNL     1      25.827   0.934  52.791  1.00  0.00     0.162 A 
ATOM      9  C   UNL     1      24.518   0.632  52.495  1.00  0.00     0.064 A 
ATOM     10  C   UNL     1      23.746  -0.135  53.304  1.00  0.00     0.047 A 
ENDROOT
BRANCH   1  11
ATOM     11  N   UNL     1      21.793   0.002  51.873  1.00  0.00    -0.340 N 
ATOM     12  H   UNL     1      21.880  -0.523  50.970  1.00  0.00     0.168 HD
BRANCH  11  13
ATOM     13  C   UNL     1      21.008   1.190  51.799  1.00  0.00     0.041 A 
ATOM     14  C   UNL     1      21.296   4.886  51.408  1.00  0.00    -0.070 C 
ATOM     15  C   UNL     1      20.716   3.563  51.569  1.00  0.00     0.026 A 
ATOM     16  C   UNL     1      19.357   3.455  51.639  1.00  0.00     0.017 A 
ATOM     17  C   UNL     1      21.549   2.447  51.647  1.00  0.00     0.043 A 
ATOM     18  C   UNL     1      18.789   2.197  51.792  1.00  0.00     0.003 A 
ATOM     19  C   UNL     1      19.633   1.113  51.867  1.00  0.00     0.026 A 
ATOM     20  C   UNL     1      21.784   5.982  51.272  1.00  0.00     0.010 C 
ENDBRANCH  11  13
ENDBRANCH   1  11
BRANCH   8  21
ATOM     21  O   UNL     1      26.562   1.725  51.920  1.00  0.00    -0.487 OA
BRANCH  21  22
ATOM     22  C   UNL     1      25.946   2.833  51.305  1.00  0.00     0.258 C 
BRANCH  22  23
ATOM     23  C   UNL     1      26.579   3.069  49.925  1.00  0.00     0.201 C 
BRANCH  23  24
ATOM     24  O   UNL     1      26.361   4.407  49.595  1.00  0.00    -0.381 OA
ATOM     25  C   UNL     1      25.174   4.827  50.155  1.00  0.00     0.195 C 
ENDBRANCH  23  24
ENDBRANCH  22  23
ENDBRANCH  21  22
ENDBRANCH   8  21
BRANCH   7  26
ATOM     26  O   UNL     1      27.740   0.820  54.144  1.00  0.00    -0.487 OA
BRANCH  26  27
ATOM     27  C   UNL     1      28.786  -0.026  54.504  1.00  0.00     0.258 C 
BRANCH  27  28
ATOM     28  C   UNL     1      29.307  -0.920  53.417  1.00  0.00     0.201 C 
BRANCH  28  29
ATOM     29  O   UNL     1      28.905  -2.235  53.587  1.00  0.00    -0.381 OA
ATOM     30  C   UNL     1      27.878  -2.554  52.727  1.00  0.00     0.195 C 
ENDBRANCH  28  29
ENDBRANCH  27  28
ENDBRANCH  26  27
ENDBRANCH   7  26
TORSDOF 10
ENDMDL
MODEL 11
REMARK VINA RESULT:    -7.178      2.649      5.308
REMARK INTER + INTRA:         -12.405
REMARK INTER:                 -11.209
REMARK INTRA:                  -1.196
REMARK UNBOUND:                -1.030
REMARK SMILES C#Cc1cccc(Nc2ncnc3cc(OCCOC)c(OCCOC)cc23)c1
REMARK SMILES IDX 9 1 10 2 11 3 12 4 13 5 14 6 15 7 21 8 27 9 28 10 8 11 7 13
REMARK SMILES IDX 2 14 3 15 4 16 29 17 5 18 6 19 1 20 22 21 23 22 24 23 25 24
REMARK SMILES IDX 26 25 16 26 17 27 18 28 19 29 20 30
REMARK H PARENT 8 12
ROOT
ATOM      1  C   UNL     1      22.755   5.054  51.906  1.00  0.00     0.141 A 
ATOM      2  N   UNL     1      21.528   5.244  51.401  1.00  0.00    -0.219 NA
ATOM      3  C   UNL     1      20.589   4.301  51.244  1.00  0.00     0.224 A 
ATOM      4  N   UNL     1      20.877   3.043  51.616  1.00  0.00    -0.236 NA
ATOM      5  C   UNL     1      22.084   2.767  52.131  1.00  0.00     0.080 A 
ATOM      6  C   UNL     1      22.345   1.453  52.503  1.00  0.00     0.079 A 
ATOM      7  C   UNL     1      23.540   1.047  53.040  1.00  0.00     0.163 A 
ATOM      8  C   UNL     1      24.500   2.067  53.191  1.00  0.00     0.162 A 
ATOM      9  C   UNL     1      24.246   3.368  52.824  1.00  0.00     0.064 A 
ATOM     10  C   UNL     1      23.061   3.758  52.293  1.00  0.00     0.047 A 
ENDROOT
BRANCH   1  11
ATOM     11  N   UNL     1      23.722   6.079  52.057  1.00  0.00    -0.340 N 
ATOM     12  H   UNL     1      24.015   6.406  53.010  1.00  0.00     0.168 HD
BRANCH  11  13
ATOM     13  C   UNL     1      24.366   6.745  50.973  1.00  0.00     0.041 A 
ATOM     14  C   UNL     1      27.242   6.435  48.622  1.00  0.00    -0.070 C 
ATOM     15  C   UNL     1      26.057   6.958  49.281  1.00  0.00     0.026 A 
ATOM     16  C   UNL     1      25.530   8.134  48.828  1.00  0.00     0.017 A 
ATOM     17  C   UNL     1      25.490   6.257  50.345  1.00  0.00     0.043 A 
ATOM     18  C   UNL     1      24.396   8.644  49.447  1.00  0.00     0.003 A 
ATOM     19  C   UNL     1      23.857   7.934  50.495  1.00  0.00     0.026 A 
ATOM     20  C   UNL     1      28.226   5.995  48.079  1.00  0.00     0.010 C 
ENDBRANCH  11  13
ENDBRANCH   1  11
BRANCH   8  21
ATOM     21  O   UNL     1      25.736   1.735  53.729  1.00  0.00    -0.487 OA
BRANCH  21  22
ATOM     22  C   UNL     1      26.803   1.417  52.866  1.00  0.00     0.258 C 
BRANCH  22  23
ATOM     23  C   UNL     1      27.744   0.422  53.563  1.00  0.00     0.201 C 
BRANCH  23  24
ATOM     24  O   UNL     1      28.379   1.111  54.597  1.00  0.00    -0.381 OA
ATOM     25  C   UNL     1      29.121   2.145  54.068  1.00  0.00     0.195 C 
ENDBRANCH  23  24
ENDBRANCH  22  23
ENDBRANCH  21  22
ENDBRANCH   8  21
BRANCH   7  26
ATOM     26  O   UNL     1      23.901  -0.189  53.429  1.00  0.00    -0.487 OA
BRANCH  26  27
ATOM     27  C   UNL     1      23.708  -0.745  54.690  1.00  0.00     0.258 C 
BRANCH  27  28
ATOM     28  C   UNL     1      22.537  -1.675  54.822  1.00  0.00     0.201 C 
BRANCH  28  29
ATOM     29  O   UNL     1      21.351  -0.992  55.037  1.00  0.00    -0.381 OA
ATOM     30  C   UNL     1      20.431  -1.279  54.053  1.00  0.00     0.195 C 
ENDBRANCH  28  29
ENDBRANCH  27  28
ENDBRANCH  26  27
ENDBRANCH   7  26
TORSDOF 10
ENDMDL
MODEL 12
REMARK VINA RESULT:    -7.123      3.165      7.066
REMARK INTER + INTRA:         -12.318
REMARK INTER:                 -11.027
REMARK INTRA:                  -1.291
REMARK UNBOUND:                -1.030
REMARK SMILES C#Cc1cccc(Nc2ncnc3cc(OCCOC)c(OCCOC)cc23)c1
REMARK SMILES IDX 9 1 10 2 11 3 12 4 13 5 14 6 15 7 21 8 27 9 28 10 8 11 7 13
REMARK SMILES IDX 2 14 3 15 4 16 29 17 5 18 6 19 1 20 22 21 23 22 24 23 25 24
REMARK SMILES IDX 26 25 16 26 17 27 18 28 19 29 20 30
REMARK H PARENT 8 12
ROOT
ATOM      1  C   UNL     1      24.151   0.478  52.727  1.00  0.00     0.141 A 
ATOM      2  N   UNL     1      24.059  -0.601  53.516  1.00  0.00    -0.219 NA
ATOM      3  C   UNL     1      22.963  -0.999  54.177  1.00  0.00     0.224 A 
ATOM      4  N   UNL     1      21.843  -0.268  54.057  1.00  0.00    -0.236 NA
ATOM      5  C   UNL     1      21.850   0.829  53.286  1.00  0.00     0.080 A 
ATOM      6  C   UNL     1      20.671   1.560  53.189  1.00  0.00     0.079 A 
ATOM      7  C   UNL     1      20.553   2.699  52.433  1.00  0.00     0.163 A 
ATOM      8  C   UNL     1      21.726   3.084  51.753  1.00  0.00     0.162 A 
ATOM      9  C   UNL     1      22.894   2.363  51.847  1.00  0.00     0.064 A 
ATOM     10  C   UNL     1      22.998   1.239  52.598  1.00  0.00     0.047 A 
ENDROOT
BRANCH   1  11
ATOM     11  N   UNL     1      25.330   0.868  52.043  1.00  0.00    -0.340 N 
ATOM     12  H   UNL     1      25.302   1.129  51.028  1.00  0.00     0.168 HD
BRANCH  11  13
ATOM     13  C   UNL     1      26.622   0.938  52.642  1.00  0.00     0.041 A 
ATOM     14  C   UNL     1      29.523  -1.180  53.638  1.00  0.00    -0.070 C 
ATOM     15  C   UNL     1      28.683  -0.013  53.427  1.00  0.00     0.026 A 
ATOM     16  C   UNL     1      29.162   1.208  53.807  1.00  0.00     0.017 A 
ATOM     17  C   UNL     1      27.424  -0.163  52.847  1.00  0.00     0.043 A 
ATOM     18  C   UNL     1      28.371   2.332  53.609  1.00  0.00     0.003 A 
ATOM     19  C   UNL     1      27.133   2.157  53.036  1.00  0.00     0.026 A 
ATOM     20  C   UNL     1      30.216  -2.153  53.811  1.00  0.00     0.010 C 
ENDBRANCH  11  13
ENDBRANCH   1  11
BRANCH   8  21
ATOM     21  O   UNL     1      21.686   4.226  50.966  1.00  0.00    -0.487 OA
BRANCH  21  22
ATOM     22  C   UNL     1      22.205   5.434  51.474  1.00  0.00     0.258 C 
BRANCH  22  23
ATOM     23  C   UNL     1      23.238   6.000  50.487  1.00  0.00     0.201 C 
BRANCH  23  24
ATOM     24  O   UNL     1      24.453   5.367  50.755  1.00  0.00    -0.381 OA
ATOM     25  C   UNL     1      24.920   4.771  49.604  1.00  0.00     0.195 C 
ENDBRANCH  23  24
ENDBRANCH  22  23
ENDBRANCH  21  22
ENDBRANCH   8  21
BRANCH   7  26
ATOM     26  O   UNL     1      19.472   3.482  52.271  1.00  0.00    -0.487 OA
BRANCH  26  27
ATOM     27  C   UNL     1      18.395   3.235  51.424  1.00  0.00     0.258 C 
BRANCH  27  28
ATOM     28  C   UNL     1      18.173   4.245  50.337  1.00  0.00     0.201 C 
BRANCH  28  29
ATOM     29  O   UNL     1      18.011   3.649  49.096  1.00  0.00    -0.381 OA
ATOM     30  C   UNL     1      19.076   2.827  48.800  1.00  0.00     0.195 C 
ENDBRANCH  28  29
ENDBRANCH  27  28
ENDBRANCH  26  27
ENDBRANCH   7  26
TORSDOF 10
ENDMDL
MODEL 13
REMARK VINA RESULT:    -7.096      3.642      7.633
REMARK INTER + INTRA:         -12.275
REMARK INTER:                 -11.144
REMARK INTRA:                  -1.132
REMARK UNBOUND:                -1.030
REMARK SMILES C#Cc1cccc(Nc2ncnc3cc(OCCOC)c(OCCOC)cc23)c1
REMARK SMILES IDX 9 1 10 2 11 3 12 4 13 5 14 6 15 7 21 8 27 9 28 10 8 11 7 13
REMARK SMILES IDX 2 14 3 15 4 16 29 17 5 18 6 19 1 20 22 21 23 22 24 23 25 24
REMARK SMILES IDX 26 25 16 26 17 27 18 28 19 29 20 30
REMARK H PARENT 8 12
ROOT
ATOM      1  C   UNL     1      25.754   3.984  49.680  1.00  0.00     0.141 A 
ATOM      2  N   UNL     1      24.470   4.307  49.890  1.00  0.00    -0.219 NA
ATOM      3  C   UNL     1      23.885   5.463  49.548  1.00  0.00     0.224 A 
ATOM      4  N   UNL     1      24.630   6.401  48.940  1.00  0.00    -0.236 NA
ATOM      5  C   UNL     1      25.925   6.157  48.693  1.00  0.00     0.080 A 
ATOM      6  C   UNL     1      26.663   7.153  48.063  1.00  0.00     0.079 A 
ATOM      7  C   UNL     1      27.995   7.024  47.759  1.00  0.00     0.163 A 
ATOM      8  C   UNL     1      28.572   5.794  48.133  1.00  0.00     0.162 A 
ATOM      9  C   UNL     1      27.845   4.806  48.756  1.00  0.00     0.064 A 
ATOM     10  C   UNL     1      26.530   4.947  49.053  1.00  0.00     0.047 A 
ENDROOT
BRANCH   1  11
ATOM     11  N   UNL     1      26.336   2.747  50.058  1.00  0.00    -0.340 N 
ATOM     12  H   UNL     1      26.888   2.181  49.369  1.00  0.00     0.168 HD
BRANCH  11  13
ATOM     13  C   UNL     1      26.234   2.172  51.358  1.00  0.00     0.041 A 
ATOM     14  C   UNL     1      23.990   0.090  53.486  1.00  0.00    -0.070 C 
ATOM     15  C   UNL     1      25.132   0.881  53.058  1.00  0.00     0.026 A 
ATOM     16  C   UNL     1      26.158   1.068  53.939  1.00  0.00     0.017 A 
ATOM     17  C   UNL     1      25.155   1.423  51.773  1.00  0.00     0.043 A 
ATOM     18  C   UNL     1      27.256   1.820  53.542  1.00  0.00     0.003 A 
ATOM     19  C   UNL     1      27.254   2.344  52.270  1.00  0.00     0.026 A 
ATOM     20  C   UNL     1      23.040  -0.566  53.836  1.00  0.00     0.010 C 
ENDBRANCH  11  13
ENDBRANCH   1  11
BRANCH   8  21
ATOM     21  O   UNL     1      29.916   5.587  47.857  1.00  0.00    -0.487 OA
BRANCH  21  22
ATOM     22  C   UNL     1      30.866   5.739  48.887  1.00  0.00     0.258 C 
BRANCH  22  23
ATOM     23  C   UNL     1      32.238   5.257  48.391  1.00  0.00     0.201 C 
BRANCH  23  24
ATOM     24  O   UNL     1      32.186   3.865  48.324  1.00  0.00    -0.381 OA
ATOM     25  C   UNL     1      32.571   3.454  47.067  1.00  0.00     0.195 C 
ENDBRANCH  23  24
ENDBRANCH  22  23
ENDBRANCH  21  22
ENDBRANCH   8  21
BRANCH   7  26
ATOM     26  O   UNL     1      28.803   7.917  47.159  1.00  0.00    -0.487 OA
BRANCH  26  27
ATOM     27  C   UNL     1      29.129   9.183  47.637  1.00  0.00     0.258 C 
BRANCH  27  28
ATOM     28  C   UNL     1      29.574   9.247  49.069  1.00  0.00     0.201 C 
BRANCH  28  29
ATOM     29  O   UNL     1      30.648  10.104  49.243  1.00  0.00    -0.381 OA
ATOM     30  C   UNL     1      31.430  10.155  48.110  1.00  0.00     0.195 C 
ENDBRANCH  28  29
ENDBRANCH  27  28
ENDBRANCH  26  27
ENDBRANCH   7  26
TORSDOF 10
ENDMDL
MODEL 14
REMARK VINA RESULT:    -7.013      1.821      2.336
REMARK INTER + INTRA:         -12.144
REMARK INTER:                 -10.947
REMARK INTRA:                  -1.197
REMARK UNBOUND:                -1.030
REMARK SMILES C#Cc1cccc(Nc2ncnc3cc(OCCOC)c(OCCOC)cc23)c1
REMARK SMILES IDX 9 1 10 2 11 3 12 4 13 5 14 6 15 7 21 8 27 9 28 10 8 11 7 13
REMARK SMILES IDX 2 14 3 15 4 16 29 17 5 18 6 19 1 20 22 21 23 22 24 23 25 24
REMARK SMILES IDX 26 25 16 26 17 27 18 28 19 29 20 30
REMARK H PARENT 8 12
ROOT
ATOM      1  C   UNL     1      22.792   1.045  51.496  1.00  0.00     0.141 A 
ATOM      2  N   UNL     1      22.190   0.241  52.383  1.00  0.00    -0.219 NA
ATOM      3  C   UNL     1      22.758  -0.292  53.473  1.00  0.00     0.224 A 
ATOM      4  N   UNL     1      24.047  -0.012  53.724  1.00  0.00    -0.236 NA
ATOM      5  C   UNL     1      24.725   0.785  52.885  1.00  0.00     0.080 A 
ATOM      6  C   UNL     1      26.058   1.050  53.177  1.00  0.00     0.079 A 
ATOM      7  C   UNL     1      26.855   1.849  52.396  1.00  0.00     0.163 A 
ATOM      8  C   UNL     1      26.221   2.390  51.260  1.00  0.00     0.162 A 
ATOM      9  C   UNL     1      24.902   2.130  50.968  1.00  0.00     0.064 A 
ATOM     10  C   UNL     1      24.125   1.339  51.747  1.00  0.00     0.047 A 
ENDROOT
BRANCH   1  11
ATOM     11  N   UNL     1      22.156   1.589  50.352  1.00  0.00    -0.340 N 
ATOM     12  H   UNL     1      22.266   1.139  49.411  1.00  0.00     0.168 HD
BRANCH  11  13
ATOM     13  C   UNL     1      21.338   2.756  50.364  1.00  0.00     0.041 A 
ATOM     14  C   UNL     1      21.523   6.477  50.482  1.00  0.00    -0.070 C 
ATOM     15  C   UNL     1      20.980   5.131  50.419  1.00  0.00     0.026 A 
ATOM     16  C   UNL     1      19.625   4.981  50.354  1.00  0.00     0.017 A 
ATOM     17  C   UNL     1      21.844   4.036  50.425  1.00  0.00     0.043 A 
ATOM     18  C   UNL     1      19.092   3.700  50.291  1.00  0.00     0.003 A 
ATOM     19  C   UNL     1      19.966   2.637  50.299  1.00  0.00     0.026 A 
ATOM     20  C   UNL     1      21.980   7.593  50.534  1.00  0.00     0.010 C 
ENDBRANCH  11  13
ENDBRANCH   1  11
BRANCH   8  21
ATOM     21  O   UNL     1      26.961   3.210  50.421  1.00  0.00    -0.487 OA
BRANCH  21  22
ATOM     22  C   UNL     1      26.292   4.115  49.572  1.00  0.00     0.258 C 
BRANCH  22  23
ATOM     23  C   UNL     1      27.325   4.924  48.773  1.00  0.00     0.201 C 
BRANCH  23  24
ATOM     24  O   UNL     1      26.857   6.237  48.705  1.00  0.00    -0.381 OA
ATOM     25  C   UNL     1      25.777   6.380  49.549  1.00  0.00     0.195 C 
ENDBRANCH  23  24
ENDBRANCH  22  23
ENDBRANCH  21  22
ENDBRANCH   8  21
BRANCH   7  26
ATOM     26  O   UNL     1      28.148   2.168  52.579  1.00  0.00    -0.487 OA
BRANCH  26  27
ATOM     27  C   UNL     1      28.794   2.322  53.803  1.00  0.00     0.258 C 
BRANCH  27  28
ATOM     28  C   UNL     1      29.211   1.054  54.487  1.00  0.00     0.201 C 
BRANCH  28  29
ATOM     29  O   UNL     1      29.950   0.230  53.654  1.00  0.00    -0.381 OA
ATOM     30  C   UNL     1      29.359  -1.008  53.531  1.00  0.00     0.195 C 
ENDBRANCH  28  29
ENDBRANCH  27  28
ENDBRANCH  26  27
ENDBRANCH   7  26
TORSDOF 10
ENDMDL
MODEL 15
REMARK VINA RESULT:    -6.973      2.809      4.755
REMARK INTER + INTRA:         -12.080
REMARK INTER:                 -10.848
REMARK INTRA:                  -1.232
REMARK UNBOUND:                -1.030
REMARK SMILES C#Cc1cccc(Nc2ncnc3cc(OCCOC)c(OCCOC)cc23)c1
REMARK SMILES IDX 9 1 10 2 11 3 12 4 13 5 14 6 15 7 21 8 27 9 28 10 8 11 7 13
REMARK SMILES IDX 2 14 3 15 4 16 29 17 5 18 6 19 1 20 22 21 23 22 24 23 25 24
REMARK SMILES IDX 26 25 16 26 17 27 18 28 19 29 20 30
REMARK H PARENT 8 12
ROOT
ATOM      1  C   UNL     1      24.420   4.009  51.213  1.00  0.00     0.141 A 
ATOM      2  N   UNL     1      25.106   4.650  50.256  1.00  0.00    -0.219 NA
ATOM      3  C   UNL     1      26.257   4.240  49.706  1.00  0.00     0.224 A 
ATOM      4  N   UNL     1      26.795   3.086  50.135  1.00  0.00    -0.236 NA
ATOM      5  C   UNL     1      26.172   2.383  51.092  1.00  0.00     0.080 A 
ATOM      6  C   UNL     1      26.761   1.194  51.509  1.00  0.00     0.079 A 
ATOM      7  C   UNL     1      26.221   0.388  52.480  1.00  0.00     0.163 A 
ATOM      8  C   UNL     1      25.011   0.853  53.032  1.00  0.00     0.162 A 
ATOM      9  C   UNL     1      24.426   2.028  52.621  1.00  0.00     0.064 A 
ATOM     10  C   UNL     1      24.969   2.817  51.662  1.00  0.00     0.047 A 
ENDROOT
BRANCH   1  11
ATOM     11  N   UNL     1      23.203   4.477  51.771  1.00  0.00    -0.340 N 
ATOM     12  H   UNL     1      23.068   4.513  52.810  1.00  0.00     0.168 HD
BRANCH  11  13
ATOM     13  C   UNL     1      22.087   4.924  51.007  1.00  0.00     0.041 A 
ATOM     14  C   UNL     1      20.269   8.014  49.985  1.00  0.00    -0.070 C 
ATOM     15  C   UNL     1      20.633   6.613  50.108  1.00  0.00     0.026 A 
ATOM     16  C   UNL     1      19.879   5.686  49.448  1.00  0.00     0.017 A 
ATOM     17  C   UNL     1      21.733   6.250  50.885  1.00  0.00     0.043 A 
ATOM     18  C   UNL     1      20.217   4.343  49.555  1.00  0.00     0.003 A 
ATOM     19  C   UNL     1      21.305   4.012  50.329  1.00  0.00     0.026 A 
ATOM     20  C   UNL     1      19.971   9.179  49.886  1.00  0.00     0.010 C 
ENDBRANCH  11  13
ENDBRANCH   1  11
BRANCH   8  21
ATOM     21  O   UNL     1      24.402   0.091  54.019  1.00  0.00    -0.487 OA
BRANCH  21  22
ATOM     22  C   UNL     1      23.233  -0.633  53.710  1.00  0.00     0.258 C 
BRANCH  22  23
ATOM     23  C   UNL     1      22.726  -1.345  54.973  1.00  0.00     0.201 C 
BRANCH  23  24
ATOM     24  O   UNL     1      21.331  -1.322  54.927  1.00  0.00    -0.381 OA
ATOM     25  C   UNL     1      20.908  -0.071  54.534  1.00  0.00     0.195 C 
ENDBRANCH  23  24
ENDBRANCH  22  23
ENDBRANCH  21  22
ENDBRANCH   8  21
BRANCH   7  26
ATOM     26  O   UNL     1      26.703  -0.771  52.962  1.00  0.00    -0.487 OA
BRANCH  26  27
ATOM     27  C   UNL     1      28.041  -1.073  53.197  1.00  0.00     0.258 C 
BRANCH  27  28
ATOM     28  C   UNL     1      28.710  -0.279  54.280  1.00  0.00     0.201 C 
BRANCH  28  29
ATOM     29  O   UNL     1      29.582   0.669  53.769  1.00  0.00    -0.381 OA
ATOM     30  C   UNL     1      29.266   1.929  54.226  1.00  0.00     0.195 C 
ENDBRANCH  28  29
ENDBRANCH  27  28
ENDBRANCH  26  27
ENDBRANCH   7  26
TORSDOF 10
ENDMDL
MODEL 16
REMARK VINA RESULT:    -6.964      3.419      8.001
REMARK INTER + INTRA:         -12.065
REMARK INTER:                 -10.931
REMARK INTRA:                  -1.134
REMARK UNBOUND:                -1.030
REMARK SMILES C#Cc1cccc(Nc2ncnc3cc(OCCOC)c(OCCOC)cc23)c1
REMARK SMILES IDX 9 1 10 2 11 3 12 4 13 5 14 6 15 7 21 8 27 9 28 10 8 11 7 13
REMARK SMILES IDX 2 14 3 15 4 16 29 17 5 18 6 19 1 20 22 21 23 22 24 23 25 24
REMARK SMILES IDX 26 25 16 26 17 27 18 28 19 29 20 30
REMARK H PARENT 8 12
ROOT
ATOM      1  C   UNL     1      25.504   2.708  51.842  1.00  0.00     0.141 A 
ATOM      2  N   UNL     1      26.245   3.228  50.853  1.00  0.00    -0.219 NA
ATOM      3  C   UNL     1      25.816   3.511  49.616  1.00  0.00     0.224 A 
ATOM      4  N   UNL     1      24.532   3.262  49.312  1.00  0.00    -0.236 NA
ATOM      5  C   UNL     1      23.722   2.741  50.245  1.00  0.00     0.080 A 
ATOM      6  C   UNL     1      22.400   2.496  49.891  1.00  0.00     0.079 A 
ATOM      7  C   UNL     1      21.476   1.965  50.756  1.00  0.00     0.163 A 
ATOM      8  C   UNL     1      21.966   1.681  52.047  1.00  0.00     0.162 A 
ATOM      9  C   UNL     1      23.273   1.923  52.400  1.00  0.00     0.064 A 
ATOM     10  C   UNL     1      24.177   2.447  51.536  1.00  0.00     0.047 A 
ENDROOT
BRANCH   1  11
ATOM     11  N   UNL     1      25.996   2.421  53.141  1.00  0.00    -0.340 N 
ATOM     12  H   UNL     1      25.468   2.723  53.994  1.00  0.00     0.168 HD
BRANCH  11  13
ATOM     13  C   UNL     1      27.211   1.724  53.406  1.00  0.00     0.041 A 
ATOM     14  C   UNL     1      28.737  -1.675  53.291  1.00  0.00    -0.070 C 
ATOM     15  C   UNL     1      28.587  -0.243  53.490  1.00  0.00     0.026 A 
ATOM     16  C   UNL     1      29.665   0.466  53.937  1.00  0.00     0.017 A 
ATOM     17  C   UNL     1      27.362   0.368  53.221  1.00  0.00     0.043 A 
ATOM     18  C   UNL     1      29.535   1.835  54.129  1.00  0.00     0.003 A 
ATOM     19  C   UNL     1      28.317   2.413  53.858  1.00  0.00     0.026 A 
ATOM     20  C   UNL     1      28.856  -2.864  53.123  1.00  0.00     0.010 C 
ENDBRANCH  11  13
ENDBRANCH   1  11
BRANCH   8  21
ATOM     21  O   UNL     1      21.091   1.144  52.980  1.00  0.00    -0.487 OA
BRANCH  21  22
ATOM     22  C   UNL     1      21.600   0.357  54.033  1.00  0.00     0.258 C 
BRANCH  22  23
ATOM     23  C   UNL     1      20.721  -0.890  54.209  1.00  0.00     0.201 C 
BRANCH  23  24
ATOM     24  O   UNL     1      21.506  -1.863  54.829  1.00  0.00    -0.381 OA
ATOM     25  C   UNL     1      22.717  -1.312  55.188  1.00  0.00     0.195 C 
ENDBRANCH  23  24
ENDBRANCH  22  23
ENDBRANCH  21  22
ENDBRANCH   8  21
BRANCH   7  26
ATOM     26  O   UNL     1      20.182   1.683  50.523  1.00  0.00    -0.487 OA
BRANCH  26  27
ATOM     27  C   UNL     1      19.598   1.466  49.278  1.00  0.00     0.258 C 
BRANCH  27  28
ATOM     28  C   UNL     1      19.015   2.676  48.609  1.00  0.00     0.201 C 
BRANCH  28  29
ATOM     29  O   UNL     1      19.743   3.055  47.493  1.00  0.00    -0.381 OA
ATOM     30  C   UNL     1      19.333   4.287  47.031  1.00  0.00     0.195 C 
ENDBRANCH  28  29
ENDBRANCH  27  28
ENDBRANCH  26  27
ENDBRANCH   7  26
TORSDOF 10
ENDMDL
MODEL 17
REMARK VINA RESULT:    -6.862      3.640      7.329
REMARK INTER + INTRA:         -11.903
REMARK INTER:                 -10.956
REMARK INTRA:                  -0.948
REMARK UNBOUND:                -1.030
REMARK SMILES C#Cc1cccc(Nc2ncnc3cc(OCCOC)c(OCCOC)cc23)c1
REMARK SMILES IDX 9 1 10 2 11 3 12 4 13 5 14 6 15 7 21 8 27 9 28 10 8 11 7 13
REMARK SMILES IDX 2 14 3 15 4 16 29 17 5 18 6 19 1 20 22 21 23 22 24 23 25 24
REMARK SMILES IDX 26 25 16 26 17 27 18 28 19 29 20 30
REMARK H PARENT 8 12
ROOT
ATOM      1  C   UNL     1      24.956   4.049  50.668  1.00  0.00     0.141 A 
ATOM      2  N   UNL     1      23.903   4.321  51.450  1.00  0.00    -0.219 NA
ATOM      3  C   UNL     1      23.385   5.536  51.676  1.00  0.00     0.224 A 
ATOM      4  N   UNL     1      23.955   6.596  51.078  1.00  0.00    -0.236 NA
ATOM      5  C   UNL     1      25.015   6.410  50.278  1.00  0.00     0.080 A 
ATOM      6  C   UNL     1      25.578   7.531  49.678  1.00  0.00     0.079 A 
ATOM      7  C   UNL     1      26.664   7.470  48.842  1.00  0.00     0.163 A 
ATOM      8  C   UNL     1      27.178   6.176  48.629  1.00  0.00     0.162 A 
ATOM      9  C   UNL     1      26.624   5.064  49.220  1.00  0.00     0.064 A 
ATOM     10  C   UNL     1      25.551   5.137  50.046  1.00  0.00     0.047 A 
ENDROOT
BRANCH   1  11
ATOM     11  N   UNL     1      25.475   2.747  50.454  1.00  0.00    -0.340 N 
ATOM     12  H   UNL     1      25.769   2.436  49.496  1.00  0.00     0.168 HD
BRANCH  11  13
ATOM     13  C   UNL     1      25.640   1.768  51.477  1.00  0.00     0.041 A 
ATOM     14  C   UNL     1      28.253  -0.122  53.346  1.00  0.00    -0.070 C 
ATOM     15  C   UNL     1      26.952   0.357  52.911  1.00  0.00     0.026 A 
ATOM     16  C   UNL     1      25.839  -0.145  53.523  1.00  0.00     0.017 A 
ATOM     17  C   UNL     1      26.869   1.308  51.894  1.00  0.00     0.043 A 
ATOM     18  C   UNL     1      24.589   0.306  53.118  1.00  0.00     0.003 A 
ATOM     19  C   UNL     1      24.535   1.242  52.112  1.00  0.00     0.026 A 
ATOM     20  C   UNL     1      29.337  -0.515  53.704  1.00  0.00     0.010 C 
ENDBRANCH  11  13
ENDBRANCH   1  11
BRANCH   8  21
ATOM     21  O   UNL     1      28.276   6.032  47.792  1.00  0.00    -0.487 OA
BRANCH  21  22
ATOM     22  C   UNL     1      29.447   5.425  48.287  1.00  0.00     0.258 C 
BRANCH  22  23
ATOM     23  C   UNL     1      30.677   6.102  47.662  1.00  0.00     0.201 C 
BRANCH  23  24
ATOM     24  O   UNL     1      31.801   5.602  48.320  1.00  0.00    -0.381 OA
ATOM     25  C   UNL     1      31.817   6.070  49.616  1.00  0.00     0.195 C 
ENDBRANCH  23  24
ENDBRANCH  22  23
ENDBRANCH  21  22
ENDBRANCH   8  21
BRANCH   7  26
ATOM     26  O   UNL     1      27.289   8.483  48.214  1.00  0.00    -0.487 OA
BRANCH  26  27
ATOM     27  C   UNL     1      28.018   9.503  48.820  1.00  0.00     0.258 C 
BRANCH  27  28
ATOM     28  C   UNL     1      29.366   9.116  49.352  1.00  0.00     0.201 C 
BRANCH  28  29
ATOM     29  O   UNL     1      30.321  10.091  49.111  1.00  0.00    -0.381 OA
ATOM     30  C   UNL     1      29.739  11.249  48.644  1.00  0.00     0.195 C 
ENDBRANCH  28  29
ENDBRANCH  27  28
ENDBRANCH  26  27
ENDBRANCH   7  26
TORSDOF 10
ENDMDL
MODEL 18
REMARK VINA RESULT:    -6.858      4.068      7.858
REMARK INTER + INTRA:         -11.897
REMARK INTER:                 -10.721
REMARK INTRA:                  -1.176
REMARK UNBOUND:                -1.030
REMARK SMILES C#Cc1cccc(Nc2ncnc3cc(OCCOC)c(OCCOC)cc23)c1
REMARK SMILES IDX 9 1 10 2 11 3 12 4 13 5 14 6 15 7 21 8 27 9 28 10 8 11 7 13
REMARK SMILES IDX 2 14 3 15 4 16 29 17 5 18 6 19 1 20 22 21 23 22 24 23 25 24
REMARK SMILES IDX 26 25 16 26 17 27 18 28 19 29 20 30
REMARK H PARENT 8 12
ROOT
ATOM      1  C   UNL     1      24.893   5.174  50.024  1.00  0.00     0.141 A 
ATOM      2  N   UNL     1      23.904   5.696  50.763  1.00  0.00    -0.219 NA
ATOM      3  C   UNL     1      23.767   6.987  51.092  1.00  0.00     0.224 A 
ATOM      4  N   UNL     1      24.691   7.860  50.657  1.00  0.00    -0.236 NA
ATOM      5  C   UNL     1      25.716   7.419  49.913  1.00  0.00     0.080 A 
ATOM      6  C   UNL     1      26.653   8.352  49.483  1.00  0.00     0.079 A 
ATOM      7  C   UNL     1      27.743   8.025  48.718  1.00  0.00     0.163 A 
ATOM      8  C   UNL     1      27.851   6.658  48.392  1.00  0.00     0.162 A 
ATOM      9  C   UNL     1      26.926   5.732  48.815  1.00  0.00     0.064 A 
ATOM     10  C   UNL     1      25.853   6.068  49.572  1.00  0.00     0.047 A 
ENDROOT
BRANCH   1  11
ATOM     11  N   UNL     1      25.004   3.799  49.697  1.00  0.00    -0.340 N 
ATOM     12  H   UNL     1      24.913   3.474  48.704  1.00  0.00     0.168 HD
BRANCH  11  13
ATOM     13  C   UNL     1      25.238   2.761  50.646  1.00  0.00     0.041 A 
ATOM     14  C   UNL     1      23.464   0.369  52.888  1.00  0.00    -0.070 C 
ATOM     15  C   UNL     1      24.536   1.074  52.205  1.00  0.00     0.026 A 
ATOM     16  C   UNL     1      25.825   0.715  52.477  1.00  0.00     0.017 A 
ATOM     17  C   UNL     1      24.229   2.089  51.298  1.00  0.00     0.043 A 
ATOM     18  C   UNL     1      26.858   1.379  51.830  1.00  0.00     0.003 A 
ATOM     19  C   UNL     1      26.529   2.376  50.942  1.00  0.00     0.026 A 
ATOM     20  C   UNL     1      22.569  -0.213  53.451  1.00  0.00     0.010 C 
ENDBRANCH  11  13
ENDBRANCH   1  11
BRANCH   8  21
ATOM     21  O   UNL     1      28.928   6.249  47.618  1.00  0.00    -0.487 OA
BRANCH  21  22
ATOM     22  C   UNL     1      30.028   5.625  48.239  1.00  0.00     0.258 C 
BRANCH  22  23
ATOM     23  C   UNL     1      31.326   6.311  47.786  1.00  0.00     0.201 C 
BRANCH  23  24
ATOM     24  O   UNL     1      31.625   7.292  48.732  1.00  0.00    -0.381 OA
ATOM     25  C   UNL     1      32.981   7.538  48.723  1.00  0.00     0.195 C 
ENDBRANCH  23  24
ENDBRANCH  22  23
ENDBRANCH  21  22
ENDBRANCH   8  21
BRANCH   7  26
ATOM     26  O   UNL     1      28.709   8.838  48.252  1.00  0.00    -0.487 OA
BRANCH  26  27
ATOM     27  C   UNL     1      29.156  10.012  48.851  1.00  0.00     0.258 C 
BRANCH  27  28
ATOM     28  C   UNL     1      28.644  11.289  48.251  1.00  0.00     0.201 C 
BRANCH  28  29
ATOM     29  O   UNL     1      28.142  12.152  49.210  1.00  0.00    -0.381 OA
ATOM     30  C   UNL     1      27.944  13.411  48.689  1.00  0.00     0.195 C 
ENDBRANCH  28  29
ENDBRANCH  27  28
ENDBRANCH  26  27
ENDBRANCH   7  26
TORSDOF 10
ENDMDL
MODEL 19
REMARK VINA RESULT:    -6.846      2.564      4.967
REMARK INTER + INTRA:         -11.879
REMARK INTER:                 -10.718
REMARK INTRA:                  -1.162
REMARK UNBOUND:                -1.030
REMARK SMILES C#Cc1cccc(Nc2ncnc3cc(OCCOC)c(OCCOC)cc23)c1
REMARK SMILES IDX 9 1 10 2 11 3 12 4 13 5 14 6 15 7 21 8 27 9 28 10 8 11 7 13
REMARK SMILES IDX 2 14 3 15 4 16 29 17 5 18 6 19 1 20 22 21 23 22 24 23 25 24
REMARK SMILES IDX 26 25 16 26 17 27 18 28 19 29 20 30
REMARK H PARENT 8 12
ROOT
ATOM      1  C   UNL     1      22.629   3.072  49.261  1.00  0.00     0.141 A 
ATOM      2  N   UNL     1      21.489   2.627  48.713  1.00  0.00    -0.219 NA
ATOM      3  C   UNL     1      20.758   1.593  49.152  1.00  0.00     0.224 A 
ATOM      4  N   UNL     1      21.184   0.923  50.236  1.00  0.00    -0.236 NA
ATOM      5  C   UNL     1      22.317   1.304  50.844  1.00  0.00     0.080 A 
ATOM      6  C   UNL     1      22.724   0.585  51.962  1.00  0.00     0.079 A 
ATOM      7  C   UNL     1      23.864   0.877  52.669  1.00  0.00     0.163 A 
ATOM      8  C   UNL     1      24.604   1.971  52.177  1.00  0.00     0.162 A 
ATOM      9  C   UNL     1      24.203   2.684  51.071  1.00  0.00     0.064 A 
ATOM     10  C   UNL     1      23.075   2.386  50.381  1.00  0.00     0.047 A 
ENDROOT
BRANCH   1  11
ATOM     11  N   UNL     1      23.375   4.172  48.766  1.00  0.00    -0.340 N 
ATOM     12  H   UNL     1      23.901   4.101  47.862  1.00  0.00     0.168 HD
BRANCH  11  13
ATOM     13  C   UNL     1      23.482   5.432  49.423  1.00  0.00     0.041 A 
ATOM     14  C   UNL     1      25.907   8.163  50.171  1.00  0.00    -0.070 C 
ATOM     15  C   UNL     1      24.673   7.398  50.123  1.00  0.00     0.026 A 
ATOM     16  C   UNL     1      23.563   7.919  50.724  1.00  0.00     0.017 A 
ATOM     17  C   UNL     1      24.648   6.164  49.473  1.00  0.00     0.043 A 
ATOM     18  C   UNL     1      22.376   7.199  50.685  1.00  0.00     0.003 A 
ATOM     19  C   UNL     1      22.379   5.985  50.038  1.00  0.00     0.026 A 
ATOM     20  C   UNL     1      26.935   8.794  50.206  1.00  0.00     0.010 C 
ENDBRANCH  11  13
ENDBRANCH   1  11
BRANCH   8  21
ATOM     21  O   UNL     1      25.769   2.329  52.840  1.00  0.00    -0.487 OA
BRANCH  21  22
ATOM     22  C   UNL     1      27.017   1.994  52.275  1.00  0.00     0.258 C 
BRANCH  22  23
ATOM     23  C   UNL     1      28.080   1.940  53.383  1.00  0.00     0.201 C 
BRANCH  23  24
ATOM     24  O   UNL     1      27.521   1.245  54.456  1.00  0.00    -0.381 OA
ATOM     25  C   UNL     1      28.316   0.161  54.761  1.00  0.00     0.195 C 
ENDBRANCH  23  24
ENDBRANCH  22  23
ENDBRANCH  21  22
ENDBRANCH   8  21
BRANCH   7  26
ATOM     26  O   UNL     1      24.354   0.251  53.754  1.00  0.00    -0.487 OA
BRANCH  26  27
ATOM     27  C   UNL     1      24.017  -1.027  54.191  1.00  0.00     0.258 C 
BRANCH  27  28
ATOM     28  C   UNL     1      23.010  -1.093  55.301  1.00  0.00     0.201 C 
BRANCH  28  29
ATOM     29  O   UNL     1      22.050  -2.067  55.077  1.00  0.00    -0.381 OA
ATOM     30  C   UNL     1      21.026  -1.582  54.296  1.00  0.00     0.195 C 
ENDBRANCH  28  29
ENDBRANCH  27  28
ENDBRANCH  26  27
ENDBRANCH   7  26
TORSDOF 10
ENDMDL
MODEL 20
REMARK VINA RESULT:    -6.836      4.069      7.975
REMARK INTER + INTRA:         -11.863
REMARK INTER:                 -10.817
REMARK INTRA:                  -1.046
REMARK UNBOUND:                -1.030
REMARK SMILES C#Cc1cccc(Nc2ncnc3cc(OCCOC)c(OCCOC)cc23)c1
REMARK SMILES IDX 9 1 10 2 11 3 12 4 13 5 14 6 15 7 21 8 27 9 28 10 8 11 7 13
REMARK SMILES IDX 2 14 3 15 4 16 29 17 5 18 6 19 1 20 22 21 23 22 24 23 25 24
REMARK SMILES IDX 26 25 16 26 17 27 18 28 19 29 20 30
REMARK H PARENT 8 12
ROOT
ATOM      1  C   UNL     1      25.652   4.655  49.125  1.00  0.00     0.141 A 
ATOM      2  N   UNL     1      24.468   5.277  49.030  1.00  0.00    -0.219 NA
ATOM      3  C   UNL     1      24.272   6.536  48.616  1.00  0.00     0.224 A 
ATOM      4  N   UNL     1      25.342   7.265  48.258  1.00  0.00    -0.236 NA
ATOM      5  C   UNL     1      26.565   6.718  48.324  1.00  0.00     0.080 A 
ATOM      6  C   UNL     1      27.647   7.505  47.946  1.00  0.00     0.079 A 
ATOM      7  C   UNL     1      28.945   7.059  47.971  1.00  0.00     0.163 A 
ATOM      8  C   UNL     1      29.109   5.731  48.411  1.00  0.00     0.162 A 
ATOM      9  C   UNL     1      28.040   4.949  48.785  1.00  0.00     0.064 A 
ATOM     10  C   UNL     1      26.762   5.401  48.757  1.00  0.00     0.047 A 
ENDROOT
BRANCH   1  11
ATOM     11  N   UNL     1      25.818   3.319  49.569  1.00  0.00    -0.340 N 
ATOM     12  H   UNL     1      25.938   2.536  48.883  1.00  0.00     0.168 HD
BRANCH  11  13
ATOM     13  C   UNL     1      25.835   2.922  50.938  1.00  0.00     0.041 A 
ATOM     14  C   UNL     1      28.051   1.446  53.546  1.00  0.00    -0.070 C 
ATOM     15  C   UNL     1      26.882   2.022  52.903  1.00  0.00     0.026 A 
ATOM     16  C   UNL     1      25.754   2.204  53.651  1.00  0.00     0.017 A 
ATOM     17  C   UNL     1      26.937   2.374  51.555  1.00  0.00     0.043 A 
ATOM     18  C   UNL     1      24.630   2.755  53.050  1.00  0.00     0.003 A 
ATOM     19  C   UNL     1      24.711   3.093  51.719  1.00  0.00     0.026 A 
ATOM     20  C   UNL     1      29.025   0.969  54.075  1.00  0.00     0.010 C 
ENDBRANCH  11  13
ENDBRANCH   1  11
BRANCH   8  21
ATOM     21  O   UNL     1      30.393   5.207  48.461  1.00  0.00    -0.487 OA
BRANCH  21  22
ATOM     22  C   UNL     1      30.932   4.588  47.316  1.00  0.00     0.258 C 
BRANCH  22  23
ATOM     23  C   UNL     1      32.352   4.090  47.626  1.00  0.00     0.201 C 
BRANCH  23  24
ATOM     24  O   UNL     1      32.999   5.105  48.332  1.00  0.00    -0.381 OA
ATOM     25  C   UNL     1      33.882   5.753  47.495  1.00  0.00     0.195 C 
ENDBRANCH  23  24
ENDBRANCH  22  23
ENDBRANCH  21  22
ENDBRANCH   8  21
BRANCH   7  26
ATOM     26  O   UNL     1      30.062   7.730  47.634  1.00  0.00    -0.487 OA
BRANCH  26  27
ATOM     27  C   UNL     1      30.265   9.102  47.749  1.00  0.00     0.258 C 
BRANCH  27  28
ATOM     28  C   UNL     1      30.870   9.567  49.041  1.00  0.00     0.201 C 
BRANCH  28  29
ATOM     29  O   UNL     1      30.663  10.920  49.256  1.00  0.00    -0.381 OA
ATOM     30  C   UNL     1      29.453  11.324  48.736  1.00  0.00     0.195 C 
ENDBRANCH  28  29
ENDBRANCH  27  28
ENDBRANCH  26  27
ENDBRANCH   7  26
TORSDOF 10
ENDMDL
