MODEL 1
REMARK VINA RESULT:   -10.098      0.000      0.000
REMARK INTER + INTRA:         -18.758
REMARK INTER:                 -17.182
REMARK INTRA:                  -1.575
REMARK UNBOUND:                -1.575
REMARK SMILES COc1cc2c(Oc3ccc(NC(=O)C4(C(=O)Nc5ccc(F)cc5)CC4)cc3F)ccnc2cc1OCCCN1CCOCC1
REMARK SMILES IDX 7 1 6 2 3 3 4 4 36 5 5 6 35 7 34 8 31 9 33 10 32 11 2 12
REMARK SMILES IDX 1 13 37 14 38 15 39 16 40 17 41 18 42 19 46 20 43 21 45 22
REMARK SMILES IDX 44 23 8 24 9 25 29 26 10 27 28 28 11 29 30 30 12 31 13 32
REMARK SMILES IDX 14 33 15 35 26 36 27 37 16 38 17 39 18 40 19 42 20 43 25 44
REMARK SMILES IDX 21 45 24 46 22 47 23 48
REMARK H PARENT 12 34 18 41
ROOT
ATOM      1  O   UNL     1      27.018   7.032  47.665  1.00  0.00    -0.454 OA
ENDROOT
BRANCH   1   2
ATOM      2  C   UNL     1      27.815   7.918  48.356  1.00  0.00     0.138 A 
ATOM      3  C   UNL     1      31.165   7.623  46.679  1.00  0.00     0.161 A 
ATOM      4  C   UNL     1      29.820   7.395  46.973  1.00  0.00     0.064 A 
ATOM      5  C   UNL     1      31.881   8.568  47.434  1.00  0.00     0.163 A 
ATOM      6  C   UNL     1      29.172   8.097  48.015  1.00  0.00     0.047 A 
ATOM      7  C   UNL     1      31.231   9.258  48.462  1.00  0.00     0.079 A 
ATOM      8  C   UNL     1      29.890   9.047  48.761  1.00  0.00     0.078 A 
ATOM      9  C   UNL     1      27.213   8.704  49.332  1.00  0.00     0.068 A 
ATOM     10  N   UNL     1      29.326   9.773  49.743  1.00  0.00    -0.256 NA
ATOM     11  C   UNL     1      28.012   9.603  50.001  1.00  0.00     0.115 A 
BRANCH   3  12
ATOM     12  O   UNL     1      31.863   6.985  45.685  1.00  0.00    -0.493 OA
ATOM     13  C   UNL     1      31.653   7.416  44.348  1.00  0.00     0.278 C 
ENDBRANCH   3  12
BRANCH   5  14
ATOM     14  O   UNL     1      33.193   8.740  47.079  1.00  0.00    -0.490 OA
BRANCH  14  15
ATOM     15  C   UNL     1      34.212   8.720  48.073  1.00  0.00     0.231 C 
BRANCH  15  16
ATOM     16  C   UNL     1      35.116   7.491  47.943  1.00  0.00     0.057 C 
BRANCH  16  17
ATOM     17  C   UNL     1      34.517   6.271  48.661  1.00  0.00     0.088 C 
BRANCH  17  18
ATOM     18  N   UNL     1      33.966   5.208  47.813  1.00  0.00    -0.299 NA
ATOM     19  C   UNL     1      34.844   4.031  47.687  1.00  0.00     0.113 C 
ATOM     20  C   UNL     1      32.615   4.774  48.209  1.00  0.00     0.113 C 
ATOM     21  C   UNL     1      34.245   3.012  46.705  1.00  0.00     0.175 C 
ATOM     22  C   UNL     1      32.066   3.736  47.217  1.00  0.00     0.175 C 
ATOM     23  O   UNL     1      32.935   2.598  47.120  1.00  0.00    -0.379 OA
ENDBRANCH  17  18
ENDBRANCH  16  17
ENDBRANCH  15  16
ENDBRANCH  14  15
ENDBRANCH   5  14
ENDBRANCH   1   2
BRANCH   1  24
ATOM     24  C   UNL     1      26.362   6.072  48.404  1.00  0.00     0.163 A 
ATOM     25  C   UNL     1      25.009   6.122  48.735  1.00  0.00     0.052 A 
ATOM     26  C   UNL     1      27.106   4.953  48.778  1.00  0.00     0.167 A 
ATOM     27  C   UNL     1      24.419   5.063  49.439  1.00  0.00     0.030 A 
ATOM     28  C   UNL     1      26.526   3.902  49.483  1.00  0.00     0.069 A 
ATOM     29  C   UNL     1      25.169   3.946  49.814  1.00  0.00     0.044 A 
ATOM     30  F   UNL     1      28.411   4.879  48.475  1.00  0.00    -0.203 F 
BRANCH  29  31
ATOM     31  N   UNL     1      24.642   2.843  50.512  1.00  0.00    -0.325 N 
ATOM     32  C   UNL     1      24.319   2.775  51.852  1.00  0.00     0.240 C 
ATOM     33  O   UNL     1      24.397   3.658  52.693  1.00  0.00    -0.273 OA
ATOM     34  H   UNL     1      24.426   2.017  49.963  1.00  0.00     0.169 HD
BRANCH  32  35
ATOM     35  C   UNL     1      23.767   1.443  52.256  1.00  0.00     0.128 C 
ATOM     36  C   UNL     1      22.575   0.887  51.476  1.00  0.00     0.028 C 
ATOM     37  C   UNL     1      22.361   1.415  52.858  1.00  0.00     0.028 C 
BRANCH  35  38
ATOM     38  C   UNL     1      24.776   0.461  52.770  1.00  0.00     0.240 C 
ATOM     39  O   UNL     1      24.379  -0.549  53.334  1.00  0.00    -0.274 OA
ATOM     40  N   UNL     1      26.078   0.852  52.539  1.00  0.00    -0.325 N 
ATOM     41  H   UNL     1      26.199   1.751  52.082  1.00  0.00     0.169 HD
BRANCH  40  42
ATOM     42  C   UNL     1      27.257   0.179  52.913  1.00  0.00     0.041 A 
ATOM     43  C   UNL     1      27.408  -1.210  52.871  1.00  0.00     0.029 A 
ATOM     44  C   UNL     1      28.331   0.966  53.349  1.00  0.00     0.029 A 
ATOM     45  C   UNL     1      28.610  -1.803  53.269  1.00  0.00     0.041 A 
ATOM     46  C   UNL     1      29.533   0.373  53.744  1.00  0.00     0.041 A 
ATOM     47  C   UNL     1      29.660  -1.008  53.702  1.00  0.00     0.123 A 
ATOM     48  F   UNL     1      30.808  -1.578  54.091  1.00  0.00    -0.207 F 
ENDBRANCH  40  42
ENDBRANCH  35  38
ENDBRANCH  32  35
ENDBRANCH  29  31
ENDBRANCH   1  24
TORSDOF 12
ENDMDL
MODEL 2
REMARK VINA RESULT:    -9.761      1.421      1.782
REMARK INTER + INTRA:         -18.183
REMARK INTER:                 -17.091
REMARK INTRA:                  -1.092
REMARK UNBOUND:                -1.575
REMARK SMILES COc1cc2c(Oc3ccc(NC(=O)C4(C(=O)Nc5ccc(F)cc5)CC4)cc3F)ccnc2cc1OCCCN1CCOCC1
REMARK SMILES IDX 7 1 6 2 3 3 4 4 36 5 5 6 35 7 34 8 31 9 33 10 32 11 2 12
REMARK SMILES IDX 1 13 37 14 38 15 39 16 40 17 41 18 42 19 46 20 43 21 45 22
REMARK SMILES IDX 44 23 8 24 9 25 29 26 10 27 28 28 11 29 30 30 12 31 13 32
REMARK SMILES IDX 14 33 15 35 26 36 27 37 16 38 17 39 18 40 19 42 20 43 25 44
REMARK SMILES IDX 21 45 24 46 22 47 23 48
REMARK H PARENT 12 34 18 41
ROOT
ATOM      1  O   UNL     1      25.956   6.181  48.405  1.00  0.00    -0.454 OA
ENDROOT
BRANCH   1   2
ATOM      2  C   UNL     1      26.505   7.355  48.872  1.00  0.00     0.138 A 
ATOM      3  C   UNL     1      30.191   6.933  48.275  1.00  0.00     0.161 A 
ATOM      4  C   UNL     1      28.825   6.646  48.308  1.00  0.00     0.064 A 
ATOM      5  C   UNL     1      30.643   8.172  48.758  1.00  0.00     0.163 A 
ATOM      6  C   UNL     1      27.896   7.580  48.818  1.00  0.00     0.047 A 
ATOM      7  C   UNL     1      29.716   9.091  49.260  1.00  0.00     0.079 A 
ATOM      8  C   UNL     1      28.353   8.823  49.291  1.00  0.00     0.078 A 
ATOM      9  C   UNL     1      25.635   8.350  49.303  1.00  0.00     0.068 A 
ATOM     10  N   UNL     1      27.520   9.770  49.759  1.00  0.00    -0.256 NA
ATOM     11  C   UNL     1      26.191   9.528  49.744  1.00  0.00     0.115 A 
BRANCH   3  12
ATOM     12  O   UNL     1      31.153   6.080  47.795  1.00  0.00    -0.493 OA
ATOM     13  C   UNL     1      30.784   4.728  47.566  1.00  0.00     0.278 C 
ENDBRANCH   3  12
BRANCH   5  14
ATOM     14  O   UNL     1      31.995   8.380  48.684  1.00  0.00    -0.490 OA
BRANCH  14  15
ATOM     15  C   UNL     1      32.536   9.205  47.656  1.00  0.00     0.231 C 
BRANCH  15  16
ATOM     16  C   UNL     1      33.898   8.700  47.173  1.00  0.00     0.057 C 
BRANCH  16  17
ATOM     17  C   UNL     1      34.495   7.669  48.144  1.00  0.00     0.088 C 
BRANCH  17  18
ATOM     18  N   UNL     1      34.730   6.320  47.617  1.00  0.00    -0.299 NA
ATOM     19  C   UNL     1      34.443   5.245  48.583  1.00  0.00     0.113 C 
ATOM     20  C   UNL     1      34.025   6.046  46.352  1.00  0.00     0.113 C 
ATOM     21  C   UNL     1      34.811   3.874  47.992  1.00  0.00     0.175 C 
ATOM     22  C   UNL     1      34.400   4.657  45.812  1.00  0.00     0.175 C 
ATOM     23  O   UNL     1      34.103   3.629  46.768  1.00  0.00    -0.379 OA
ENDBRANCH  17  18
ENDBRANCH  16  17
ENDBRANCH  15  16
ENDBRANCH  14  15
ENDBRANCH   5  14
ENDBRANCH   1   2
BRANCH   1  24
ATOM     24  C   UNL     1      25.484   5.293  49.347  1.00  0.00     0.163 A 
ATOM     25  C   UNL     1      24.325   5.483  50.097  1.00  0.00     0.052 A 
ATOM     26  C   UNL     1      26.194   4.101  49.494  1.00  0.00     0.167 A 
ATOM     27  C   UNL     1      23.894   4.490  50.987  1.00  0.00     0.030 A 
ATOM     28  C   UNL     1      25.773   3.115  50.382  1.00  0.00     0.069 A 
ATOM     29  C   UNL     1      24.609   3.299  51.134  1.00  0.00     0.044 A 
ATOM     30  F   UNL     1      27.314   3.892  48.787  1.00  0.00    -0.203 F 
BRANCH  29  31
ATOM     31  N   UNL     1      24.231   2.256  51.999  1.00  0.00    -0.325 N 
ATOM     32  C   UNL     1      23.343   1.233  51.742  1.00  0.00     0.240 C 
ATOM     33  O   UNL     1      22.729   1.008  50.709  1.00  0.00    -0.273 OA
ATOM     34  H   UNL     1      24.699   2.219  52.900  1.00  0.00     0.169 HD
BRANCH  32  35
ATOM     35  C   UNL     1      23.187   0.286  52.892  1.00  0.00     0.128 C 
ATOM     36  C   UNL     1      22.010  -0.690  52.871  1.00  0.00     0.028 C 
ATOM     37  C   UNL     1      21.974   0.478  53.804  1.00  0.00     0.028 C 
BRANCH  35  38
ATOM     38  C   UNL     1      24.467  -0.189  53.508  1.00  0.00     0.240 C 
ATOM     39  O   UNL     1      24.443  -0.629  54.650  1.00  0.00    -0.274 OA
ATOM     40  N   UNL     1      25.556  -0.047  52.673  1.00  0.00    -0.325 N 
ATOM     41  H   UNL     1      25.371   0.377  51.769  1.00  0.00     0.169 HD
BRANCH  40  42
ATOM     42  C   UNL     1      26.898  -0.367  52.949  1.00  0.00     0.041 A 
ATOM     43  C   UNL     1      27.431  -1.655  52.838  1.00  0.00     0.029 A 
ATOM     44  C   UNL     1      27.735   0.681  53.355  1.00  0.00     0.029 A 
ATOM     45  C   UNL     1      28.775  -1.893  53.139  1.00  0.00     0.041 A 
ATOM     46  C   UNL     1      29.079   0.443  53.653  1.00  0.00     0.041 A 
ATOM     47  C   UNL     1      29.587  -0.844  53.545  1.00  0.00     0.123 A 
ATOM     48  F   UNL     1      30.872  -1.075  53.842  1.00  0.00    -0.207 F 
ENDBRANCH  40  42
ENDBRANCH  35  38
ENDBRANCH  32  35
ENDBRANCH  29  31
ENDBRANCH   1  24
TORSDOF 12
ENDMDL
MODEL 3
REMARK VINA RESULT:    -9.658      1.689      3.071
REMARK INTER + INTRA:         -18.008
REMARK INTER:                 -16.490
REMARK INTRA:                  -1.517
REMARK UNBOUND:                -1.575
REMARK SMILES COc1cc2c(Oc3ccc(NC(=O)C4(C(=O)Nc5ccc(F)cc5)CC4)cc3F)ccnc2cc1OCCCN1CCOCC1
REMARK SMILES IDX 7 1 6 2 3 3 4 4 36 5 5 6 35 7 34 8 31 9 33 10 32 11 2 12
REMARK SMILES IDX 1 13 37 14 38 15 39 16 40 17 41 18 42 19 46 20 43 21 45 22
REMARK SMILES IDX 44 23 8 24 9 25 29 26 10 27 28 28 11 29 30 30 12 31 13 32
REMARK SMILES IDX 14 33 15 35 26 36 27 37 16 38 17 39 18 40 19 42 20 43 25 44
REMARK SMILES IDX 21 45 24 46 22 47 23 48
REMARK H PARENT 12 34 18 41
ROOT
ATOM      1  O   UNL     1      27.658   6.820  47.888  1.00  0.00    -0.454 OA
ENDROOT
BRANCH   1   2
ATOM      2  C   UNL     1      28.504   7.737  48.473  1.00  0.00     0.138 A 
ATOM      3  C   UNL     1      31.919   6.235  48.021  1.00  0.00     0.161 A 
ATOM      4  C   UNL     1      30.532   6.382  47.966  1.00  0.00     0.064 A 
ATOM      5  C   UNL     1      32.692   7.243  48.622  1.00  0.00     0.163 A 
ATOM      6  C   UNL     1      29.898   7.525  48.504  1.00  0.00     0.047 A 
ATOM      7  C   UNL     1      32.056   8.371  49.150  1.00  0.00     0.079 A 
ATOM      8  C   UNL     1      30.677   8.535  49.095  1.00  0.00     0.078 A 
ATOM      9  C   UNL     1      27.950   8.924  48.939  1.00  0.00     0.068 A 
ATOM     10  N   UNL     1      30.141   9.662  49.596  1.00  0.00    -0.256 NA
ATOM     11  C   UNL     1      28.806   9.843  49.499  1.00  0.00     0.115 A 
BRANCH   3  12
ATOM     12  O   UNL     1      32.607   5.158  47.521  1.00  0.00    -0.493 OA
ATOM     13  C   UNL     1      31.882   3.959  47.290  1.00  0.00     0.278 C 
ENDBRANCH   3  12
BRANCH   5  14
ATOM     14  O   UNL     1      34.045   7.028  48.629  1.00  0.00    -0.490 OA
BRANCH  14  15
ATOM     15  C   UNL     1      34.924   7.983  48.044  1.00  0.00     0.231 C 
BRANCH  15  16
ATOM     16  C   UNL     1      34.528   8.322  46.605  1.00  0.00     0.057 C 
BRANCH  16  17
ATOM     17  C   UNL     1      34.360   9.836  46.406  1.00  0.00     0.088 C 
BRANCH  17  18
ATOM     18  N   UNL     1      33.021  10.312  46.042  1.00  0.00    -0.299 NA
ATOM     19  C   UNL     1      32.085   9.235  45.672  1.00  0.00     0.113 C 
ATOM     20  C   UNL     1      32.400  11.174  47.063  1.00  0.00     0.113 C 
ATOM     21  C   UNL     1      30.742   9.820  45.207  1.00  0.00     0.175 C 
ATOM     22  C   UNL     1      31.049  11.714  46.568  1.00  0.00     0.175 C 
ATOM     23  O   UNL     1      30.155  10.646  46.224  1.00  0.00    -0.379 OA
ENDBRANCH  17  18
ENDBRANCH  16  17
ENDBRANCH  15  16
ENDBRANCH  14  15
ENDBRANCH   5  14
ENDBRANCH   1   2
BRANCH   1  24
ATOM     24  C   UNL     1      26.902   6.038  48.734  1.00  0.00     0.163 A 
ATOM     25  C   UNL     1      25.763   6.480  49.406  1.00  0.00     0.052 A 
ATOM     26  C   UNL     1      27.281   4.703  48.859  1.00  0.00     0.167 A 
ATOM     27  C   UNL     1      25.025   5.589  50.197  1.00  0.00     0.030 A 
ATOM     28  C   UNL     1      26.555   3.815  49.649  1.00  0.00     0.069 A 
ATOM     29  C   UNL     1      25.411   4.252  50.321  1.00  0.00     0.044 A 
ATOM     30  F   UNL     1      28.374   4.251  48.226  1.00  0.00    -0.203 F 
BRANCH  29  31
ATOM     31  N   UNL     1      24.714   3.300  51.089  1.00  0.00    -0.325 N 
ATOM     32  C   UNL     1      23.735   2.429  50.657  1.00  0.00     0.240 C 
ATOM     33  O   UNL     1      23.297   2.286  49.525  1.00  0.00    -0.273 OA
ATOM     34  H   UNL     1      24.993   3.206  52.060  1.00  0.00     0.169 HD
BRANCH  32  35
ATOM     35  C   UNL     1      23.216   1.542  51.747  1.00  0.00     0.128 C 
ATOM     36  C   UNL     1      21.915   0.777  51.499  1.00  0.00     0.028 C 
ATOM     37  C   UNL     1      21.907   1.951  52.425  1.00  0.00     0.028 C 
BRANCH  35  38
ATOM     38  C   UNL     1      24.265   0.869  52.579  1.00  0.00     0.240 C 
ATOM     39  O   UNL     1      23.935   0.362  53.643  1.00  0.00    -0.274 OA
ATOM     40  N   UNL     1      25.522   0.926  52.016  1.00  0.00    -0.325 N 
ATOM     41  H   UNL     1      25.593   1.428  51.136  1.00  0.00     0.169 HD
BRANCH  40  42
ATOM     42  C   UNL     1      26.725   0.421  52.545  1.00  0.00     0.041 A 
ATOM     43  C   UNL     1      27.739   1.222  53.078  1.00  0.00     0.029 A 
ATOM     44  C   UNL     1      26.895  -0.970  52.529  1.00  0.00     0.029 A 
ATOM     45  C   UNL     1      28.910   0.642  53.577  1.00  0.00     0.041 A 
ATOM     46  C   UNL     1      28.064  -1.549  53.030  1.00  0.00     0.041 A 
ATOM     47  C   UNL     1      29.063  -0.736  53.547  1.00  0.00     0.123 A 
ATOM     48  F   UNL     1      30.188  -1.290  54.017  1.00  0.00    -0.207 F 
ENDBRANCH  40  42
ENDBRANCH  35  38
ENDBRANCH  32  35
ENDBRANCH  29  31
ENDBRANCH   1  24
TORSDOF 12
ENDMDL
MODEL 4
REMARK VINA RESULT:    -9.505      1.628      2.312
REMARK INTER + INTRA:         -17.748
REMARK INTER:                 -16.604
REMARK INTRA:                  -1.144
REMARK UNBOUND:                -1.575
REMARK SMILES COc1cc2c(Oc3ccc(NC(=O)C4(C(=O)Nc5ccc(F)cc5)CC4)cc3F)ccnc2cc1OCCCN1CCOCC1
REMARK SMILES IDX 7 1 6 2 3 3 4 4 36 5 5 6 35 7 34 8 31 9 33 10 32 11 2 12
REMARK SMILES IDX 1 13 37 14 38 15 39 16 40 17 41 18 42 19 46 20 43 21 45 22
REMARK SMILES IDX 44 23 8 24 9 25 29 26 10 27 28 28 11 29 30 30 12 31 13 32
REMARK SMILES IDX 14 33 15 35 26 36 27 37 16 38 17 39 18 40 19 42 20 43 25 44
REMARK SMILES IDX 21 45 24 46 22 47 23 48
REMARK H PARENT 12 34 18 41
ROOT
ATOM      1  O   UNL     1      27.051   6.652  48.015  1.00  0.00    -0.454 OA
ENDROOT
BRANCH   1   2
ATOM      2  C   UNL     1      27.897   7.599  48.550  1.00  0.00     0.138 A 
ATOM      3  C   UNL     1      31.318   6.455  47.497  1.00  0.00     0.161 A 
ATOM      4  C   UNL     1      29.931   6.477  47.650  1.00  0.00     0.064 A 
ATOM      5  C   UNL     1      32.087   7.484  48.066  1.00  0.00     0.163 A 
ATOM      6  C   UNL     1      29.293   7.514  48.366  1.00  0.00     0.047 A 
ATOM      7  C   UNL     1      31.447   8.508  48.771  1.00  0.00     0.079 A 
ATOM      8  C   UNL     1      30.066   8.547  48.925  1.00  0.00     0.078 A 
ATOM      9  C   UNL     1      27.324   8.692  49.188  1.00  0.00     0.068 A 
ATOM     10  N   UNL     1      29.521   9.582  49.590  1.00  0.00    -0.256 NA
ATOM     11  C   UNL     1      28.176   9.645  49.697  1.00  0.00     0.115 A 
BRANCH   3  12
ATOM     12  O   UNL     1      32.010   5.485  46.816  1.00  0.00    -0.493 OA
ATOM     13  C   UNL     1      31.852   4.139  47.239  1.00  0.00     0.278 C 
ENDBRANCH   3  12
BRANCH   5  14
ATOM     14  O   UNL     1      33.439   7.395  47.864  1.00  0.00    -0.490 OA
BRANCH  14  15
ATOM     15  C   UNL     1      34.140   8.462  47.231  1.00  0.00     0.231 C 
BRANCH  15  16
ATOM     16  C   UNL     1      33.503   8.852  45.895  1.00  0.00     0.057 C 
BRANCH  16  17
ATOM     17  C   UNL     1      34.243   8.216  44.708  1.00  0.00     0.088 C 
BRANCH  17  18
ATOM     18  N   UNL     1      33.553   7.132  44.000  1.00  0.00    -0.299 NA
ATOM     19  C   UNL     1      33.391   7.373  42.555  1.00  0.00     0.113 C 
ATOM     20  C   UNL     1      34.158   5.805  44.213  1.00  0.00     0.113 C 
ATOM     21  C   UNL     1      32.572   6.245  41.907  1.00  0.00     0.175 C 
ATOM     22  C   UNL     1      33.324   4.712  43.526  1.00  0.00     0.175 C 
ATOM     23  O   UNL     1      33.189   4.966  42.121  1.00  0.00    -0.379 OA
ENDBRANCH  17  18
ENDBRANCH  16  17
ENDBRANCH  15  16
ENDBRANCH  14  15
ENDBRANCH   5  14
ENDBRANCH   1   2
BRANCH   1  24
ATOM     24  C   UNL     1      26.401   5.821  48.902  1.00  0.00     0.163 A 
ATOM     25  C   UNL     1      25.238   6.163  49.591  1.00  0.00     0.052 A 
ATOM     26  C   UNL     1      26.921   4.537  49.053  1.00  0.00     0.167 A 
ATOM     27  C   UNL     1      24.615   5.224  50.425  1.00  0.00     0.030 A 
ATOM     28  C   UNL     1      26.310   3.603  49.886  1.00  0.00     0.069 A 
ATOM     29  C   UNL     1      25.142   3.939  50.576  1.00  0.00     0.044 A 
ATOM     30  F   UNL     1      28.040   4.183  48.405  1.00  0.00    -0.203 F 
BRANCH  29  31
ATOM     31  N   UNL     1      24.566   2.943  51.387  1.00  0.00    -0.325 N 
ATOM     32  C   UNL     1      23.639   1.992  51.016  1.00  0.00     0.240 C 
ATOM     33  O   UNL     1      23.153   1.801  49.911  1.00  0.00    -0.273 OA
ATOM     34  H   UNL     1      24.905   2.882  52.343  1.00  0.00     0.169 HD
BRANCH  32  35
ATOM     35  C   UNL     1      23.253   1.079  52.139  1.00  0.00     0.128 C 
ATOM     36  C   UNL     1      21.996   0.222  51.975  1.00  0.00     0.028 C 
ATOM     37  C   UNL     1      21.963   1.399  52.897  1.00  0.00     0.028 C 
BRANCH  35  38
ATOM     38  C   UNL     1      24.396   0.489  52.907  1.00  0.00     0.240 C 
ATOM     39  O   UNL     1      24.200   0.105  54.052  1.00  0.00    -0.274 OA
ATOM     40  N   UNL     1      25.575   0.468  52.192  1.00  0.00    -0.325 N 
ATOM     41  H   UNL     1      25.538   0.869  51.260  1.00  0.00     0.169 HD
BRANCH  40  42
ATOM     42  C   UNL     1      26.834   0.009  52.624  1.00  0.00     0.041 A 
ATOM     43  C   UNL     1      27.228  -1.333  52.591  1.00  0.00     0.029 A 
ATOM     44  C   UNL     1      27.732   0.968  53.109  1.00  0.00     0.029 A 
ATOM     45  C   UNL     1      28.495  -1.709  53.047  1.00  0.00     0.041 A 
ATOM     46  C   UNL     1      28.999   0.592  53.562  1.00  0.00     0.041 A 
ATOM     47  C   UNL     1      29.368  -0.746  53.529  1.00  0.00     0.123 A 
ATOM     48  F   UNL     1      30.578  -1.109  53.974  1.00  0.00    -0.207 F 
ENDBRANCH  40  42
ENDBRANCH  35  38
ENDBRANCH  32  35
ENDBRANCH  29  31
ENDBRANCH   1  24
TORSDOF 12
ENDMDL
MODEL 5
REMARK VINA RESULT:    -9.501      2.027      2.663
REMARK INTER + INTRA:         -17.741
REMARK INTER:                 -15.604
REMARK INTRA:                  -2.138
REMARK UNBOUND:                -1.575
REMARK SMILES COc1cc2c(Oc3ccc(NC(=O)C4(C(=O)Nc5ccc(F)cc5)CC4)cc3F)ccnc2cc1OCCCN1CCOCC1
REMARK SMILES IDX 7 1 6 2 3 3 4 4 36 5 5 6 35 7 34 8 31 9 33 10 32 11 2 12
REMARK SMILES IDX 1 13 37 14 38 15 39 16 40 17 41 18 42 19 46 20 43 21 45 22
REMARK SMILES IDX 44 23 8 24 9 25 29 26 10 27 28 28 11 29 30 30 12 31 13 32
REMARK SMILES IDX 14 33 15 35 26 36 27 37 16 38 17 39 18 40 19 42 20 43 25 44
REMARK SMILES IDX 21 45 24 46 22 47 23 48
REMARK H PARENT 12 34 18 41
ROOT
ATOM      1  O   UNL     1      27.142   9.999  47.450  1.00  0.00    -0.454 OA
ENDROOT
BRANCH   1   2
ATOM      2  C   UNL     1      28.153  10.826  47.890  1.00  0.00     0.138 A 
ATOM      3  C   UNL     1      31.235   9.443  46.243  1.00  0.00     0.161 A 
ATOM      4  C   UNL     1      29.898   9.583  46.618  1.00  0.00     0.064 A 
ATOM      5  C   UNL     1      32.183  10.357  46.733  1.00  0.00     0.163 A 
ATOM      6  C   UNL     1      29.487  10.625  47.480  1.00  0.00     0.047 A 
ATOM      7  C   UNL     1      31.768  11.386  47.584  1.00  0.00     0.079 A 
ATOM      8  C   UNL     1      30.439  11.542  47.959  1.00  0.00     0.078 A 
ATOM      9  C   UNL     1      27.800  11.923  48.667  1.00  0.00     0.068 A 
ATOM     10  N   UNL     1      30.112  12.576  48.755  1.00  0.00    -0.256 NA
ATOM     11  C   UNL     1      28.813  12.757  49.080  1.00  0.00     0.115 A 
BRANCH   3  12
ATOM     12  O   UNL     1      31.710   8.461  45.411  1.00  0.00    -0.493 OA
ATOM     13  C   UNL     1      31.496   8.615  44.016  1.00  0.00     0.278 C 
ENDBRANCH   3  12
BRANCH   5  14
ATOM     14  O   UNL     1      33.472  10.157  46.312  1.00  0.00    -0.490 OA
BRANCH  14  15
ATOM     15  C   UNL     1      34.492   9.845  47.256  1.00  0.00     0.231 C 
BRANCH  15  16
ATOM     16  C   UNL     1      34.795   8.346  47.299  1.00  0.00     0.057 C 
BRANCH  16  17
ATOM     17  C   UNL     1      34.119   7.668  48.501  1.00  0.00     0.088 C 
BRANCH  17  18
ATOM     18  N   UNL     1      32.854   6.970  48.244  1.00  0.00    -0.299 NA
ATOM     19  C   UNL     1      32.978   5.502  48.213  1.00  0.00     0.113 C 
ATOM     20  C   UNL     1      31.768   7.352  49.165  1.00  0.00     0.113 C 
ATOM     21  C   UNL     1      31.637   4.853  47.838  1.00  0.00     0.175 C 
ATOM     22  C   UNL     1      30.454   6.660  48.770  1.00  0.00     0.175 C 
ATOM     23  O   UNL     1      30.601   5.233  48.756  1.00  0.00    -0.379 OA
ENDBRANCH  17  18
ENDBRANCH  16  17
ENDBRANCH  15  16
ENDBRANCH  14  15
ENDBRANCH   5  14
ENDBRANCH   1   2
BRANCH   1  24
ATOM     24  C   UNL     1      26.823   8.922  48.248  1.00  0.00     0.163 A 
ATOM     25  C   UNL     1      26.227   9.024  49.504  1.00  0.00     0.052 A 
ATOM     26  C   UNL     1      27.060   7.656  47.716  1.00  0.00     0.167 A 
ATOM     27  C   UNL     1      25.883   7.865  50.214  1.00  0.00     0.030 A 
ATOM     28  C   UNL     1      26.726   6.502  48.420  1.00  0.00     0.069 A 
ATOM     29  C   UNL     1      26.125   6.598  49.677  1.00  0.00     0.044 A 
ATOM     30  F   UNL     1      27.635   7.529  46.511  1.00  0.00    -0.203 F 
BRANCH  29  31
ATOM     31  N   UNL     1      25.798   5.393  50.327  1.00  0.00    -0.325 N 
ATOM     32  C   UNL     1      24.697   4.593  50.105  1.00  0.00     0.240 C 
ATOM     33  O   UNL     1      23.802   4.748  49.287  1.00  0.00    -0.273 OA
ATOM     34  H   UNL     1      26.471   5.043  51.002  1.00  0.00     0.169 HD
BRANCH  32  35
ATOM     35  C   UNL     1      24.673   3.372  50.973  1.00  0.00     0.128 C 
ATOM     36  C   UNL     1      23.411   2.508  50.971  1.00  0.00     0.028 C 
ATOM     37  C   UNL     1      23.707   3.368  52.158  1.00  0.00     0.028 C 
BRANCH  35  38
ATOM     38  C   UNL     1      25.989   2.673  51.130  1.00  0.00     0.240 C 
ATOM     39  O   UNL     1      26.781   2.692  50.198  1.00  0.00    -0.274 OA
ATOM     40  N   UNL     1      26.134   2.061  52.358  1.00  0.00    -0.325 N 
ATOM     41  H   UNL     1      25.340   2.132  52.987  1.00  0.00     0.169 HD
BRANCH  40  42
ATOM     42  C   UNL     1      27.227   1.303  52.818  1.00  0.00     0.041 A 
ATOM     43  C   UNL     1      28.369   1.859  53.403  1.00  0.00     0.029 A 
ATOM     44  C   UNL     1      27.147  -0.088  52.673  1.00  0.00     0.029 A 
ATOM     45  C   UNL     1      29.418   1.037  53.826  1.00  0.00     0.041 A 
ATOM     46  C   UNL     1      28.194  -0.909  53.098  1.00  0.00     0.041 A 
ATOM     47  C   UNL     1      29.323  -0.338  53.669  1.00  0.00     0.123 A 
ATOM     48  F   UNL     1      30.332  -1.124  54.067  1.00  0.00    -0.207 F 
ENDBRANCH  40  42
ENDBRANCH  35  38
ENDBRANCH  32  35
ENDBRANCH  29  31
ENDBRANCH   1  24
TORSDOF 12
ENDMDL
MODEL 6
REMARK VINA RESULT:    -9.453      2.195      4.165
REMARK INTER + INTRA:         -17.659
REMARK INTER:                 -16.573
REMARK INTRA:                  -1.086
REMARK UNBOUND:                -1.575
REMARK SMILES COc1cc2c(Oc3ccc(NC(=O)C4(C(=O)Nc5ccc(F)cc5)CC4)cc3F)ccnc2cc1OCCCN1CCOCC1
REMARK SMILES IDX 7 1 6 2 3 3 4 4 36 5 5 6 35 7 34 8 31 9 33 10 32 11 2 12
REMARK SMILES IDX 1 13 37 14 38 15 39 16 40 17 41 18 42 19 46 20 43 21 45 22
REMARK SMILES IDX 44 23 8 24 9 25 29 26 10 27 28 28 11 29 30 30 12 31 13 32
REMARK SMILES IDX 14 33 15 35 26 36 27 37 16 38 17 39 18 40 19 42 20 43 25 44
REMARK SMILES IDX 21 45 24 46 22 47 23 48
REMARK H PARENT 12 34 18 41
ROOT
ATOM      1  O   UNL     1      25.982   6.171  48.520  1.00  0.00    -0.454 OA
ENDROOT
BRANCH   1   2
ATOM      2  C   UNL     1      26.528   7.338  49.009  1.00  0.00     0.138 A 
ATOM      3  C   UNL     1      30.144   7.136  48.005  1.00  0.00     0.161 A 
ATOM      4  C   UNL     1      28.803   6.782  48.159  1.00  0.00     0.064 A 
ATOM      5  C   UNL     1      30.592   8.362  48.525  1.00  0.00     0.163 A 
ATOM      6  C   UNL     1      27.895   7.633  48.828  1.00  0.00     0.047 A 
ATOM      7  C   UNL     1      29.687   9.199  49.184  1.00  0.00     0.079 A 
ATOM      8  C   UNL     1      28.347   8.863  49.337  1.00  0.00     0.078 A 
ATOM      9  C   UNL     1      25.668   8.258  49.597  1.00  0.00     0.068 A 
ATOM     10  N   UNL     1      27.530   9.735  49.955  1.00  0.00    -0.256 NA
ATOM     11  C   UNL     1      26.219   9.430  50.061  1.00  0.00     0.115 A 
BRANCH   3  12
ATOM     12  O   UNL     1      31.084   6.366  47.368  1.00  0.00    -0.493 OA
ATOM     13  C   UNL     1      31.103   4.975  47.654  1.00  0.00     0.278 C 
ENDBRANCH   3  12
BRANCH   5  14
ATOM     14  O   UNL     1      31.919   8.641  48.326  1.00  0.00    -0.490 OA
BRANCH  14  15
ATOM     15  C   UNL     1      32.311   9.893  47.772  1.00  0.00     0.231 C 
BRANCH  15  16
ATOM     16  C   UNL     1      31.630  10.166  46.429  1.00  0.00     0.057 C 
BRANCH  16  17
ATOM     17  C   UNL     1      31.070  11.595  46.359  1.00  0.00     0.088 C 
BRANCH  17  18
ATOM     18  N   UNL     1      29.833  11.860  47.103  1.00  0.00    -0.299 NA
ATOM     19  C   UNL     1      30.010  12.772  48.247  1.00  0.00     0.113 C 
ATOM     20  C   UNL     1      28.725  12.339  46.259  1.00  0.00     0.113 C 
ATOM     21  C   UNL     1      28.697  12.916  49.032  1.00  0.00     0.175 C 
ATOM     22  C   UNL     1      27.440  12.495  47.088  1.00  0.00     0.175 C 
ATOM     23  O   UNL     1      27.638  13.394  48.189  1.00  0.00    -0.379 OA
ENDBRANCH  17  18
ENDBRANCH  16  17
ENDBRANCH  15  16
ENDBRANCH  14  15
ENDBRANCH   5  14
ENDBRANCH   1   2
BRANCH   1  24
ATOM     24  C   UNL     1      25.503   5.268  49.444  1.00  0.00     0.163 A 
ATOM     25  C   UNL     1      24.351   5.457  50.205  1.00  0.00     0.052 A 
ATOM     26  C   UNL     1      26.197   4.064  49.560  1.00  0.00     0.167 A 
ATOM     27  C   UNL     1      23.910   4.450  51.075  1.00  0.00     0.030 A 
ATOM     28  C   UNL     1      25.767   3.063  50.428  1.00  0.00     0.069 A 
ATOM     29  C   UNL     1      24.610   3.247  51.190  1.00  0.00     0.044 A 
ATOM     30  F   UNL     1      27.310   3.856  48.842  1.00  0.00    -0.203 F 
BRANCH  29  31
ATOM     31  N   UNL     1      24.223   2.189  52.034  1.00  0.00    -0.325 N 
ATOM     32  C   UNL     1      23.318   1.185  51.758  1.00  0.00     0.240 C 
ATOM     33  O   UNL     1      22.695   0.992  50.724  1.00  0.00    -0.273 OA
ATOM     34  H   UNL     1      24.695   2.125  52.930  1.00  0.00     0.169 HD
BRANCH  32  35
ATOM     35  C   UNL     1      23.155   0.214  52.887  1.00  0.00     0.128 C 
ATOM     36  C   UNL     1      21.984  -0.768  52.834  1.00  0.00     0.028 C 
ATOM     37  C   UNL     1      21.931   0.380  53.790  1.00  0.00     0.028 C 
BRANCH  35  38
ATOM     38  C   UNL     1      24.432  -0.266  53.508  1.00  0.00     0.240 C 
ATOM     39  O   UNL     1      24.403  -0.698  54.652  1.00  0.00    -0.274 OA
ATOM     40  N   UNL     1      25.522  -0.137  52.673  1.00  0.00    -0.325 N 
ATOM     41  H   UNL     1      25.341   0.282  51.766  1.00  0.00     0.169 HD
BRANCH  40  42
ATOM     42  C   UNL     1      26.862  -0.465  52.952  1.00  0.00     0.041 A 
ATOM     43  C   UNL     1      27.391  -1.754  52.830  1.00  0.00     0.029 A 
ATOM     44  C   UNL     1      27.701   0.575  53.373  1.00  0.00     0.029 A 
ATOM     45  C   UNL     1      28.733  -2.000  53.136  1.00  0.00     0.041 A 
ATOM     46  C   UNL     1      29.042   0.330  53.675  1.00  0.00     0.041 A 
ATOM     47  C   UNL     1      29.546  -0.958  53.556  1.00  0.00     0.123 A 
ATOM     48  F   UNL     1      30.829  -1.196  53.857  1.00  0.00    -0.207 F 
ENDBRANCH  40  42
ENDBRANCH  35  38
ENDBRANCH  32  35
ENDBRANCH  29  31
ENDBRANCH   1  24
TORSDOF 12
ENDMDL
MODEL 7
REMARK VINA RESULT:    -9.423      1.776      2.533
REMARK INTER + INTRA:         -17.609
REMARK INTER:                 -16.021
REMARK INTRA:                  -1.587
REMARK UNBOUND:                -1.575
REMARK SMILES COc1cc2c(Oc3ccc(NC(=O)C4(C(=O)Nc5ccc(F)cc5)CC4)cc3F)ccnc2cc1OCCCN1CCOCC1
REMARK SMILES IDX 7 1 6 2 3 3 4 4 36 5 5 6 35 7 34 8 31 9 33 10 32 11 2 12
REMARK SMILES IDX 1 13 37 14 38 15 39 16 40 17 41 18 42 19 46 20 43 21 45 22
REMARK SMILES IDX 44 23 8 24 9 25 29 26 10 27 28 28 11 29 30 30 12 31 13 32
REMARK SMILES IDX 14 33 15 35 26 36 27 37 16 38 17 39 18 40 19 42 20 43 25 44
REMARK SMILES IDX 21 45 24 46 22 47 23 48
REMARK H PARENT 12 34 18 41
ROOT
ATOM      1  O   UNL     1      26.305   7.996  49.179  1.00  0.00    -0.454 OA
ENDROOT
BRANCH   1   2
ATOM      2  C   UNL     1      26.574   8.218  47.846  1.00  0.00     0.138 A 
ATOM      3  C   UNL     1      30.325   8.105  47.650  1.00  0.00     0.161 A 
ATOM      4  C   UNL     1      29.038   8.072  48.187  1.00  0.00     0.064 A 
ATOM      5  C   UNL     1      30.487   8.316  46.271  1.00  0.00     0.163 A 
ATOM      6  C   UNL     1      27.900   8.248  47.367  1.00  0.00     0.047 A 
ATOM      7  C   UNL     1      29.356   8.488  45.466  1.00  0.00     0.079 A 
ATOM      8  C   UNL     1      28.068   8.450  45.986  1.00  0.00     0.078 A 
ATOM      9  C   UNL     1      25.496   8.309  46.974  1.00  0.00     0.068 A 
ATOM     10  N   UNL     1      27.028   8.591  45.144  1.00  0.00    -0.256 NA
ATOM     11  C   UNL     1      25.776   8.505  45.641  1.00  0.00     0.115 A 
BRANCH   3  12
ATOM     12  O   UNL     1      31.476   7.941  48.379  1.00  0.00    -0.493 OA
ATOM     13  C   UNL     1      31.440   7.044  49.479  1.00  0.00     0.278 C 
ENDBRANCH   3  12
BRANCH   5  14
ATOM     14  O   UNL     1      31.781   8.327  45.820  1.00  0.00    -0.490 OA
BRANCH  14  15
ATOM     15  C   UNL     1      32.078   7.914  44.490  1.00  0.00     0.231 C 
BRANCH  15  16
ATOM     16  C   UNL     1      32.432   6.426  44.417  1.00  0.00     0.057 C 
BRANCH  16  17
ATOM     17  C   UNL     1      33.790   6.135  45.075  1.00  0.00     0.088 C 
BRANCH  17  18
ATOM     18  N   UNL     1      33.782   5.261  46.253  1.00  0.00    -0.299 NA
ATOM     19  C   UNL     1      32.447   4.739  46.599  1.00  0.00     0.113 C 
ATOM     20  C   UNL     1      34.740   4.144  46.170  1.00  0.00     0.113 C 
ATOM     21  C   UNL     1      32.506   3.920  47.898  1.00  0.00     0.175 C 
ATOM     22  C   UNL     1      34.746   3.337  47.478  1.00  0.00     0.175 C 
ATOM     23  O   UNL     1      33.438   2.834  47.785  1.00  0.00    -0.379 OA
ENDBRANCH  17  18
ENDBRANCH  16  17
ENDBRANCH  15  16
ENDBRANCH  14  15
ENDBRANCH   5  14
ENDBRANCH   1   2
BRANCH   1  24
ATOM     24  C   UNL     1      25.845   6.745  49.525  1.00  0.00     0.163 A 
ATOM     25  C   UNL     1      26.438   5.549  49.123  1.00  0.00     0.052 A 
ATOM     26  C   UNL     1      24.751   6.696  50.389  1.00  0.00     0.167 A 
ATOM     27  C   UNL     1      25.932   4.325  49.580  1.00  0.00     0.030 A 
ATOM     28  C   UNL     1      24.240   5.482  50.840  1.00  0.00     0.069 A 
ATOM     29  C   UNL     1      24.834   4.281  50.443  1.00  0.00     0.044 A 
ATOM     30  F   UNL     1      24.158   7.830  50.790  1.00  0.00    -0.203 F 
BRANCH  29  31
ATOM     31  N   UNL     1      24.278   3.091  50.949  1.00  0.00    -0.325 N 
ATOM     32  C   UNL     1      24.175   2.710  52.271  1.00  0.00     0.240 C 
ATOM     33  O   UNL     1      24.516   3.332  53.266  1.00  0.00    -0.273 OA
ATOM     34  H   UNL     1      23.860   2.460  50.273  1.00  0.00     0.169 HD
BRANCH  32  35
ATOM     35  C   UNL     1      23.514   1.377  52.448  1.00  0.00     0.128 C 
ATOM     36  C   UNL     1      22.374   1.004  51.499  1.00  0.00     0.028 C 
ATOM     37  C   UNL     1      22.057   1.369  52.914  1.00  0.00     0.028 C 
BRANCH  35  38
ATOM     38  C   UNL     1      24.413   0.274  52.917  1.00  0.00     0.240 C 
ATOM     39  O   UNL     1      23.938  -0.620  53.605  1.00  0.00    -0.274 OA
ATOM     40  N   UNL     1      25.720   0.426  52.502  1.00  0.00    -0.325 N 
ATOM     41  H   UNL     1      25.920   1.263  51.963  1.00  0.00     0.169 HD
BRANCH  40  42
ATOM     42  C   UNL     1      26.815  -0.410  52.788  1.00  0.00     0.041 A 
ATOM     43  C   UNL     1      26.841  -1.781  52.513  1.00  0.00     0.029 A 
ATOM     44  C   UNL     1      27.936   0.185  53.380  1.00  0.00     0.029 A 
ATOM     45  C   UNL     1      27.967  -2.545  52.836  1.00  0.00     0.041 A 
ATOM     46  C   UNL     1      29.062  -0.578  53.700  1.00  0.00     0.041 A 
ATOM     47  C   UNL     1      29.065  -1.939  53.427  1.00  0.00     0.123 A 
ATOM     48  F   UNL     1      30.139  -2.674  53.744  1.00  0.00    -0.207 F 
ENDBRANCH  40  42
ENDBRANCH  35  38
ENDBRANCH  32  35
ENDBRANCH  29  31
ENDBRANCH   1  24
TORSDOF 12
ENDMDL
MODEL 8
REMARK VINA RESULT:    -9.360      1.968      2.838
REMARK INTER + INTRA:         -17.501
REMARK INTER:                 -15.869
REMARK INTRA:                  -1.633
REMARK UNBOUND:                -1.575
REMARK SMILES COc1cc2c(Oc3ccc(NC(=O)C4(C(=O)Nc5ccc(F)cc5)CC4)cc3F)ccnc2cc1OCCCN1CCOCC1
REMARK SMILES IDX 7 1 6 2 3 3 4 4 36 5 5 6 35 7 34 8 31 9 33 10 32 11 2 12
REMARK SMILES IDX 1 13 37 14 38 15 39 16 40 17 41 18 42 19 46 20 43 21 45 22
REMARK SMILES IDX 44 23 8 24 9 25 29 26 10 27 28 28 11 29 30 30 12 31 13 32
REMARK SMILES IDX 14 33 15 35 26 36 27 37 16 38 17 39 18 40 19 42 20 43 25 44
REMARK SMILES IDX 21 45 24 46 22 47 23 48
REMARK H PARENT 12 34 18 41
ROOT
ATOM      1  O   UNL     1      26.845   8.843  48.314  1.00  0.00    -0.454 OA
ENDROOT
BRANCH   1   2
ATOM      2  C   UNL     1      27.250   8.790  46.998  1.00  0.00     0.138 A 
ATOM      3  C   UNL     1      30.966   8.272  47.216  1.00  0.00     0.161 A 
ATOM      4  C   UNL     1      29.642   8.465  47.614  1.00  0.00     0.064 A 
ATOM      5  C   UNL     1      31.267   8.211  45.845  1.00  0.00     0.163 A 
ATOM      6  C   UNL     1      28.607   8.601  46.662  1.00  0.00     0.047 A 
ATOM      7  C   UNL     1      30.236   8.345  44.910  1.00  0.00     0.079 A 
ATOM      8  C   UNL     1      28.913   8.530  45.292  1.00  0.00     0.078 A 
ATOM      9  C   UNL     1      26.267   8.827  46.016  1.00  0.00     0.068 A 
ATOM     10  N   UNL     1      27.972   8.618  44.334  1.00  0.00    -0.256 NA
ATOM     11  C   UNL     1      26.680   8.749  44.706  1.00  0.00     0.115 A 
BRANCH   3  12
ATOM     12  O   UNL     1      32.024   8.130  48.077  1.00  0.00    -0.493 OA
ATOM     13  C   UNL     1      31.779   7.508  49.330  1.00  0.00     0.278 C 
ENDBRANCH   3  12
BRANCH   5  14
ATOM     14  O   UNL     1      32.587   8.011  45.536  1.00  0.00    -0.490 OA
BRANCH  14  15
ATOM     15  C   UNL     1      32.967   7.675  44.205  1.00  0.00     0.231 C 
BRANCH  15  16
ATOM     16  C   UNL     1      32.859   6.172  43.940  1.00  0.00     0.057 C 
BRANCH  16  17
ATOM     17  C   UNL     1      34.074   5.411  44.492  1.00  0.00     0.088 C 
BRANCH  17  18
ATOM     18  N   UNL     1      33.964   4.890  45.860  1.00  0.00    -0.299 NA
ATOM     19  C   UNL     1      32.592   4.515  46.246  1.00  0.00     0.113 C 
ATOM     20  C   UNL     1      34.879   3.771  46.144  1.00  0.00     0.113 C 
ATOM     21  C   UNL     1      32.545   4.079  47.719  1.00  0.00     0.175 C 
ATOM     22  C   UNL     1      34.779   3.350  47.619  1.00  0.00     0.175 C 
ATOM     23  O   UNL     1      33.437   2.981  47.965  1.00  0.00    -0.379 OA
ENDBRANCH  17  18
ENDBRANCH  16  17
ENDBRANCH  15  16
ENDBRANCH  14  15
ENDBRANCH   5  14
ENDBRANCH   1   2
BRANCH   1  24
ATOM     24  C   UNL     1      26.387   7.671  48.876  1.00  0.00     0.163 A 
ATOM     25  C   UNL     1      26.783   6.397  48.471  1.00  0.00     0.052 A 
ATOM     26  C   UNL     1      25.522   7.793  49.962  1.00  0.00     0.167 A 
ATOM     27  C   UNL     1      26.308   5.265  49.148  1.00  0.00     0.030 A 
ATOM     28  C   UNL     1      25.041   6.672  50.634  1.00  0.00     0.069 A 
ATOM     29  C   UNL     1      25.439   5.393  50.234  1.00  0.00     0.044 A 
ATOM     30  F   UNL     1      25.122   9.006  50.371  1.00  0.00    -0.203 F 
BRANCH  29  31
ATOM     31  N   UNL     1      24.929   4.304  50.966  1.00  0.00    -0.325 N 
ATOM     32  C   UNL     1      24.029   3.353  50.535  1.00  0.00     0.240 C 
ATOM     33  O   UNL     1      23.514   3.243  49.432  1.00  0.00    -0.273 OA
ATOM     34  H   UNL     1      25.301   4.171  51.902  1.00  0.00     0.169 HD
BRANCH  32  35
ATOM     35  C   UNL     1      23.715   2.325  51.580  1.00  0.00     0.128 C 
ATOM     36  C   UNL     1      22.714   1.223  51.232  1.00  0.00     0.028 C 
ATOM     37  C   UNL     1      22.300   2.319  52.161  1.00  0.00     0.028 C 
BRANCH  35  38
ATOM     38  C   UNL     1      24.853   1.964  52.485  1.00  0.00     0.240 C 
ATOM     39  O   UNL     1      24.918   2.492  53.587  1.00  0.00    -0.274 OA
ATOM     40  N   UNL     1      25.723   1.053  51.924  1.00  0.00    -0.325 N 
ATOM     41  H   UNL     1      25.510   0.760  50.976  1.00  0.00     0.169 HD
BRANCH  40  42
ATOM     42  C   UNL     1      26.900   0.527  52.490  1.00  0.00     0.041 A 
ATOM     43  C   UNL     1      27.953   1.313  52.969  1.00  0.00     0.029 A 
ATOM     44  C   UNL     1      27.003  -0.867  52.571  1.00  0.00     0.029 A 
ATOM     45  C   UNL     1      29.094   0.713  53.510  1.00  0.00     0.041 A 
ATOM     46  C   UNL     1      28.142  -1.467  53.114  1.00  0.00     0.041 A 
ATOM     47  C   UNL     1      29.180  -0.670  53.577  1.00  0.00     0.123 A 
ATOM     48  F   UNL     1      30.277  -1.244  54.087  1.00  0.00    -0.207 F 
ENDBRANCH  40  42
ENDBRANCH  35  38
ENDBRANCH  32  35
ENDBRANCH  29  31
ENDBRANCH   1  24
TORSDOF 12
ENDMDL
MODEL 9
REMARK VINA RESULT:    -9.350      5.489      7.494
REMARK INTER + INTRA:         -17.485
REMARK INTER:                 -14.760
REMARK INTRA:                  -2.725
REMARK UNBOUND:                -1.575
REMARK SMILES COc1cc2c(Oc3ccc(NC(=O)C4(C(=O)Nc5ccc(F)cc5)CC4)cc3F)ccnc2cc1OCCCN1CCOCC1
REMARK SMILES IDX 7 1 6 2 3 3 4 4 36 5 5 6 35 7 34 8 31 9 33 10 32 11 2 12
REMARK SMILES IDX 1 13 37 14 38 15 39 16 40 17 41 18 42 19 46 20 43 21 45 22
REMARK SMILES IDX 44 23 8 24 9 25 29 26 10 27 28 28 11 29 30 30 12 31 13 32
REMARK SMILES IDX 14 33 15 35 26 36 27 37 16 38 17 39 18 40 19 42 20 43 25 44
REMARK SMILES IDX 21 45 24 46 22 47 23 48
REMARK H PARENT 12 34 18 41
ROOT
ATOM      1  O   UNL     1      19.640   3.641  48.031  1.00  0.00    -0.454 OA
ENDROOT
BRANCH   1   2
ATOM      2  C   UNL     1      20.560   4.197  47.169  1.00  0.00     0.138 A 
ATOM      3  C   UNL     1      21.691   7.314  48.937  1.00  0.00     0.161 A 
ATOM      4  C   UNL     1      20.997   6.131  48.677  1.00  0.00     0.064 A 
ATOM      5  C   UNL     1      22.625   7.782  47.998  1.00  0.00     0.163 A 
ATOM      6  C   UNL     1      21.221   5.401  47.487  1.00  0.00     0.047 A 
ATOM      7  C   UNL     1      22.841   7.052  46.824  1.00  0.00     0.079 A 
ATOM      8  C   UNL     1      22.164   5.869  46.556  1.00  0.00     0.078 A 
ATOM      9  C   UNL     1      20.890   3.480  46.024  1.00  0.00     0.068 A 
ATOM     10  N   UNL     1      22.450   5.206  45.420  1.00  0.00    -0.256 NA
ATOM     11  C   UNL     1      21.827   4.032  45.182  1.00  0.00     0.115 A 
BRANCH   3  12
ATOM     12  O   UNL     1      21.531   8.076  50.066  1.00  0.00    -0.493 OA
ATOM     13  C   UNL     1      20.237   8.596  50.337  1.00  0.00     0.278 C 
ENDBRANCH   3  12
BRANCH   5  14
ATOM     14  O   UNL     1      23.270   8.944  48.330  1.00  0.00    -0.490 OA
BRANCH  14  15
ATOM     15  C   UNL     1      24.675   8.943  48.559  1.00  0.00     0.231 C 
BRANCH  15  16
ATOM     16  C   UNL     1      25.020   8.598  50.010  1.00  0.00     0.057 C 
BRANCH  16  17
ATOM     17  C   UNL     1      25.615   7.186  50.130  1.00  0.00     0.088 C 
BRANCH  17  18
ATOM     18  N   UNL     1      24.674   6.063  50.058  1.00  0.00    -0.299 NA
ATOM     19  C   UNL     1      25.222   4.869  49.391  1.00  0.00     0.113 C 
ATOM     20  C   UNL     1      24.107   5.680  51.363  1.00  0.00     0.113 C 
ATOM     21  C   UNL     1      24.146   3.778  49.265  1.00  0.00     0.175 C 
ATOM     22  C   UNL     1      23.058   4.569  51.194  1.00  0.00     0.175 C 
ATOM     23  O   UNL     1      23.619   3.417  50.550  1.00  0.00    -0.379 OA
ENDBRANCH  17  18
ENDBRANCH  16  17
ENDBRANCH  15  16
ENDBRANCH  14  15
ENDBRANCH   5  14
ENDBRANCH   1   2
BRANCH   1  24
ATOM     24  C   UNL     1      20.112   2.725  48.945  1.00  0.00     0.163 A 
ATOM     25  C   UNL     1      20.997   1.692  48.638  1.00  0.00     0.052 A 
ATOM     26  C   UNL     1      19.718   2.902  50.270  1.00  0.00     0.167 A 
ATOM     27  C   UNL     1      21.469   0.847  49.652  1.00  0.00     0.030 A 
ATOM     28  C   UNL     1      20.179   2.061  51.280  1.00  0.00     0.069 A 
ATOM     29  C   UNL     1      21.068   1.027  50.978  1.00  0.00     0.044 A 
ATOM     30  F   UNL     1      18.865   3.885  50.594  1.00  0.00    -0.203 F 
BRANCH  29  31
ATOM     31  N   UNL     1      21.508   0.225  52.048  1.00  0.00    -0.325 N 
ATOM     32  C   UNL     1      22.467   0.536  52.990  1.00  0.00     0.240 C 
ATOM     33  O   UNL     1      23.105   1.573  53.106  1.00  0.00    -0.273 OA
ATOM     34  H   UNL     1      21.036  -0.664  52.175  1.00  0.00     0.169 HD
BRANCH  32  35
ATOM     35  C   UNL     1      22.676  -0.553  53.997  1.00  0.00     0.128 C 
ATOM     36  C   UNL     1      21.765  -1.779  53.936  1.00  0.00     0.028 C 
ATOM     37  C   UNL     1      21.571  -0.779  55.031  1.00  0.00     0.028 C 
BRANCH  35  38
ATOM     38  C   UNL     1      24.097  -0.768  54.422  1.00  0.00     0.240 C 
ATOM     39  O   UNL     1      24.315  -1.243  55.528  1.00  0.00    -0.274 OA
ATOM     40  N   UNL     1      25.013  -0.371  53.469  1.00  0.00    -0.325 N 
ATOM     41  H   UNL     1      24.627   0.035  52.623  1.00  0.00     0.169 HD
BRANCH  40  42
ATOM     42  C   UNL     1      26.417  -0.411  53.558  1.00  0.00     0.041 A 
ATOM     43  C   UNL     1      27.179   0.519  54.273  1.00  0.00     0.029 A 
ATOM     44  C   UNL     1      27.071  -1.452  52.886  1.00  0.00     0.029 A 
ATOM     45  C   UNL     1      28.573   0.415  54.305  1.00  0.00     0.041 A 
ATOM     46  C   UNL     1      28.463  -1.557  52.921  1.00  0.00     0.041 A 
ATOM     47  C   UNL     1      29.203  -0.619  53.629  1.00  0.00     0.123 A 
ATOM     48  F   UNL     1      30.539  -0.713  53.653  1.00  0.00    -0.207 F 
ENDBRANCH  40  42
ENDBRANCH  35  38
ENDBRANCH  32  35
ENDBRANCH  29  31
ENDBRANCH   1  24
TORSDOF 12
ENDMDL
MODEL 10
REMARK VINA RESULT:    -9.299      2.191      3.700
REMARK INTER + INTRA:         -17.397
REMARK INTER:                 -16.428
REMARK INTRA:                  -0.969
REMARK UNBOUND:                -1.575
REMARK SMILES COc1cc2c(Oc3ccc(NC(=O)C4(C(=O)Nc5ccc(F)cc5)CC4)cc3F)ccnc2cc1OCCCN1CCOCC1
REMARK SMILES IDX 7 1 6 2 3 3 4 4 36 5 5 6 35 7 34 8 31 9 33 10 32 11 2 12
REMARK SMILES IDX 1 13 37 14 38 15 39 16 40 17 41 18 42 19 46 20 43 21 45 22
REMARK SMILES IDX 44 23 8 24 9 25 29 26 10 27 28 28 11 29 30 30 12 31 13 32
REMARK SMILES IDX 14 33 15 35 26 36 27 37 16 38 17 39 18 40 19 42 20 43 25 44
REMARK SMILES IDX 21 45 24 46 22 47 23 48
REMARK H PARENT 12 34 18 41
ROOT
ATOM      1  O   UNL     1      23.777   5.030  48.471  1.00  0.00    -0.454 OA
ENDROOT
BRANCH   1   2
ATOM      2  C   UNL     1      23.865   6.384  48.713  1.00  0.00     0.138 A 
ATOM      3  C   UNL     1      27.492   7.175  48.126  1.00  0.00     0.161 A 
ATOM      4  C   UNL     1      26.310   6.441  48.235  1.00  0.00     0.064 A 
ATOM      5  C   UNL     1      27.466   8.557  48.374  1.00  0.00     0.163 A 
ATOM      6  C   UNL     1      25.094   7.066  48.592  1.00  0.00     0.047 A 
ATOM      7  C   UNL     1      26.257   9.168  48.725  1.00  0.00     0.079 A 
ATOM      8  C   UNL     1      25.072   8.452  48.830  1.00  0.00     0.078 A 
ATOM      9  C   UNL     1      22.687   7.071  48.979  1.00  0.00     0.068 A 
ATOM     10  N   UNL     1      23.943   9.115  49.141  1.00  0.00    -0.256 NA
ATOM     11  C   UNL     1      22.782   8.427  49.196  1.00  0.00     0.115 A 
BRANCH   3  12
ATOM     12  O   UNL     1      28.709   6.642  47.783  1.00  0.00    -0.493 OA
ATOM     13  C   UNL     1      29.055   5.377  48.330  1.00  0.00     0.278 C 
ENDBRANCH   3  12
BRANCH   5  14
ATOM     14  O   UNL     1      28.664   9.207  48.237  1.00  0.00    -0.490 OA
BRANCH  14  15
ATOM     15  C   UNL     1      29.293   9.795  49.371  1.00  0.00     0.231 C 
BRANCH  15  16
ATOM     16  C   UNL     1      30.766   9.392  49.482  1.00  0.00     0.057 C 
BRANCH  16  17
ATOM     17  C   UNL     1      31.399   9.177  48.099  1.00  0.00     0.088 C 
BRANCH  17  18
ATOM     18  N   UNL     1      31.969   7.852  47.830  1.00  0.00    -0.299 NA
ATOM     19  C   UNL     1      33.137   7.877  46.932  1.00  0.00     0.113 C 
ATOM     20  C   UNL     1      32.301   7.090  49.047  1.00  0.00     0.113 C 
ATOM     21  C   UNL     1      33.610   6.449  46.618  1.00  0.00     0.175 C 
ATOM     22  C   UNL     1      32.794   5.680  48.686  1.00  0.00     0.175 C 
ATOM     23  O   UNL     1      33.936   5.734  47.819  1.00  0.00    -0.379 OA
ENDBRANCH  17  18
ENDBRANCH  16  17
ENDBRANCH  15  16
ENDBRANCH  14  15
ENDBRANCH   5  14
ENDBRANCH   1   2
BRANCH   1  24
ATOM     24  C   UNL     1      23.513   4.217  49.551  1.00  0.00     0.163 A 
ATOM     25  C   UNL     1      22.282   4.146  50.200  1.00  0.00     0.052 A 
ATOM     26  C   UNL     1      24.542   3.370  49.963  1.00  0.00     0.167 A 
ATOM     27  C   UNL     1      22.094   3.239  51.253  1.00  0.00     0.030 A 
ATOM     28  C   UNL     1      24.362   2.473  51.013  1.00  0.00     0.069 A 
ATOM     29  C   UNL     1      23.128   2.395  51.664  1.00  0.00     0.044 A 
ATOM     30  F   UNL     1      25.738   3.419  49.359  1.00  0.00    -0.203 F 
BRANCH  29  31
ATOM     31  N   UNL     1      23.009   1.455  52.705  1.00  0.00    -0.325 N 
ATOM     32  C   UNL     1      22.344   0.247  52.672  1.00  0.00     0.240 C 
ATOM     33  O   UNL     1      21.751  -0.264  51.733  1.00  0.00    -0.273 OA
ATOM     34  H   UNL     1      23.509   1.661  53.564  1.00  0.00     0.169 HD
BRANCH  32  35
ATOM     35  C   UNL     1      22.433  -0.508  53.962  1.00  0.00     0.128 C 
ATOM     36  C   UNL     1      21.351  -1.544  54.271  1.00  0.00     0.028 C 
ATOM     37  C   UNL     1      21.350  -0.244  55.010  1.00  0.00     0.028 C 
BRANCH  35  38
ATOM     38  C   UNL     1      23.823  -0.799  54.440  1.00  0.00     0.240 C 
ATOM     39  O   UNL     1      23.970  -1.374  55.509  1.00  0.00    -0.274 OA
ATOM     40  N   UNL     1      24.798  -0.346  53.575  1.00  0.00    -0.325 N 
ATOM     41  H   UNL     1      24.468   0.143  52.749  1.00  0.00     0.169 HD
BRANCH  40  42
ATOM     42  C   UNL     1      26.194  -0.432  53.733  1.00  0.00     0.041 A 
ATOM     43  C   UNL     1      26.919   0.309  54.672  1.00  0.00     0.029 A 
ATOM     44  C   UNL     1      26.879  -1.319  52.893  1.00  0.00     0.029 A 
ATOM     45  C   UNL     1      28.308   0.172  54.761  1.00  0.00     0.041 A 
ATOM     46  C   UNL     1      28.267  -1.457  52.983  1.00  0.00     0.041 A 
ATOM     47  C   UNL     1      28.970  -0.707  53.916  1.00  0.00     0.123 A 
ATOM     48  F   UNL     1      30.301  -0.830  53.995  1.00  0.00    -0.207 F 
ENDBRANCH  40  42
ENDBRANCH  35  38
ENDBRANCH  32  35
ENDBRANCH  29  31
ENDBRANCH   1  24
TORSDOF 12
ENDMDL
MODEL 11
REMARK VINA RESULT:    -9.232      2.065      2.907
REMARK INTER + INTRA:         -17.284
REMARK INTER:                 -15.236
REMARK INTRA:                  -2.048
REMARK UNBOUND:                -1.575
REMARK SMILES COc1cc2c(Oc3ccc(NC(=O)C4(C(=O)Nc5ccc(F)cc5)CC4)cc3F)ccnc2cc1OCCCN1CCOCC1
REMARK SMILES IDX 7 1 6 2 3 3 4 4 36 5 5 6 35 7 34 8 31 9 33 10 32 11 2 12
REMARK SMILES IDX 1 13 37 14 38 15 39 16 40 17 41 18 42 19 46 20 43 21 45 22
REMARK SMILES IDX 44 23 8 24 9 25 29 26 10 27 28 28 11 29 30 30 12 31 13 32
REMARK SMILES IDX 14 33 15 35 26 36 27 37 16 38 17 39 18 40 19 42 20 43 25 44
REMARK SMILES IDX 21 45 24 46 22 47 23 48
REMARK H PARENT 12 34 18 41
ROOT
ATOM      1  O   UNL     1      24.735   7.813  48.741  1.00  0.00    -0.454 OA
ENDROOT
BRANCH   1   2
ATOM      2  C   UNL     1      25.967   8.389  48.964  1.00  0.00     0.138 A 
ATOM      3  C   UNL     1      27.452   8.705  45.526  1.00  0.00     0.161 A 
ATOM      4  C   UNL     1      26.546   8.391  46.541  1.00  0.00     0.064 A 
ATOM      5  C   UNL     1      28.674   9.312  45.862  1.00  0.00     0.163 A 
ATOM      6  C   UNL     1      26.840   8.673  47.894  1.00  0.00     0.047 A 
ATOM      7  C   UNL     1      28.956   9.589  47.203  1.00  0.00     0.079 A 
ATOM      8  C   UNL     1      28.060   9.290  48.223  1.00  0.00     0.078 A 
ATOM      9  C   UNL     1      26.277   8.773  50.263  1.00  0.00     0.068 A 
ATOM     10  N   UNL     1      28.389   9.616  49.486  1.00  0.00    -0.256 NA
ATOM     11  C   UNL     1      27.499   9.370  50.471  1.00  0.00     0.115 A 
BRANCH   3  12
ATOM     12  O   UNL     1      27.239   8.464  44.192  1.00  0.00    -0.493 OA
ATOM     13  C   UNL     1      26.233   9.221  43.535  1.00  0.00     0.278 C 
ENDBRANCH   3  12
BRANCH   5  14
ATOM     14  O   UNL     1      29.504   9.596  44.809  1.00  0.00    -0.490 OA
BRANCH  14  15
ATOM     15  C   UNL     1      30.887   9.265  44.879  1.00  0.00     0.231 C 
BRANCH  15  16
ATOM     16  C   UNL     1      31.120   7.755  44.792  1.00  0.00     0.057 C 
BRANCH  16  17
ATOM     17  C   UNL     1      32.282   7.309  45.694  1.00  0.00     0.088 C 
BRANCH  17  18
ATOM     18  N   UNL     1      31.957   7.009  47.093  1.00  0.00    -0.299 NA
ATOM     19  C   UNL     1      30.629   6.397  47.278  1.00  0.00     0.113 C 
ATOM     20  C   UNL     1      32.974   6.190  47.776  1.00  0.00     0.113 C 
ATOM     21  C   UNL     1      30.323   6.210  48.773  1.00  0.00     0.175 C 
ATOM     22  C   UNL     1      32.615   6.005  49.259  1.00  0.00     0.175 C 
ATOM     23  O   UNL     1      31.323   5.401  49.410  1.00  0.00    -0.379 OA
ENDBRANCH  17  18
ENDBRANCH  16  17
ENDBRANCH  15  16
ENDBRANCH  14  15
ENDBRANCH   5  14
ENDBRANCH   1   2
BRANCH   1  24
ATOM     24  C   UNL     1      24.538   6.544  49.241  1.00  0.00     0.163 A 
ATOM     25  C   UNL     1      25.319   5.438  48.909  1.00  0.00     0.052 A 
ATOM     26  C   UNL     1      23.527   6.395  50.189  1.00  0.00     0.167 A 
ATOM     27  C   UNL     1      25.078   4.200  49.520  1.00  0.00     0.030 A 
ATOM     28  C   UNL     1      23.278   5.165  50.793  1.00  0.00     0.069 A 
ATOM     29  C   UNL     1      24.061   4.054  50.467  1.00  0.00     0.044 A 
ATOM     30  F   UNL     1      22.757   7.441  50.525  1.00  0.00    -0.203 F 
BRANCH  29  31
ATOM     31  N   UNL     1      23.768   2.846  51.127  1.00  0.00    -0.325 N 
ATOM     32  C   UNL     1      23.922   2.565  52.469  1.00  0.00     0.240 C 
ATOM     33  O   UNL     1      24.312   3.308  53.357  1.00  0.00    -0.273 OA
ATOM     34  H   UNL     1      23.351   2.110  50.566  1.00  0.00     0.169 HD
BRANCH  32  35
ATOM     35  C   UNL     1      23.497   1.174  52.830  1.00  0.00     0.128 C 
ATOM     36  C   UNL     1      22.362   0.534  52.031  1.00  0.00     0.028 C 
ATOM     37  C   UNL     1      22.101   0.996  53.429  1.00  0.00     0.028 C 
BRANCH  35  38
ATOM     38  C   UNL     1      24.594   0.275  53.314  1.00  0.00     0.240 C 
ATOM     39  O   UNL     1      24.306  -0.668  54.037  1.00  0.00    -0.274 OA
ATOM     40  N   UNL     1      25.843   0.657  52.868  1.00  0.00    -0.325 N 
ATOM     41  H   UNL     1      25.875   1.497  52.300  1.00  0.00     0.169 HD
BRANCH  40  42
ATOM     42  C   UNL     1      27.081   0.051  53.157  1.00  0.00     0.041 A 
ATOM     43  C   UNL     1      27.393  -1.274  52.837  1.00  0.00     0.029 A 
ATOM     44  C   UNL     1      28.043   0.839  53.801  1.00  0.00     0.029 A 
ATOM     45  C   UNL     1      28.644  -1.805  53.166  1.00  0.00     0.041 A 
ATOM     46  C   UNL     1      29.294   0.310  54.127  1.00  0.00     0.041 A 
ATOM     47  C   UNL     1      29.582  -1.010  53.808  1.00  0.00     0.123 A 
ATOM     48  F   UNL     1      30.777  -1.522  54.131  1.00  0.00    -0.207 F 
ENDBRANCH  40  42
ENDBRANCH  35  38
ENDBRANCH  32  35
ENDBRANCH  29  31
ENDBRANCH   1  24
TORSDOF 12
ENDMDL
MODEL 12
REMARK VINA RESULT:    -9.225      2.568      9.477
REMARK INTER + INTRA:         -17.271
REMARK INTER:                 -15.725
REMARK INTRA:                  -1.546
REMARK UNBOUND:                -1.575
REMARK SMILES COc1cc2c(Oc3ccc(NC(=O)C4(C(=O)Nc5ccc(F)cc5)CC4)cc3F)ccnc2cc1OCCCN1CCOCC1
REMARK SMILES IDX 7 1 6 2 3 3 4 4 36 5 5 6 35 7 34 8 31 9 33 10 32 11 2 12
REMARK SMILES IDX 1 13 37 14 38 15 39 16 40 17 41 18 42 19 46 20 43 21 45 22
REMARK SMILES IDX 44 23 8 24 9 25 29 26 10 27 28 28 11 29 30 30 12 31 13 32
REMARK SMILES IDX 14 33 15 35 26 36 27 37 16 38 17 39 18 40 19 42 20 43 25 44
REMARK SMILES IDX 21 45 24 46 22 47 23 48
REMARK H PARENT 12 34 18 41
ROOT
ATOM      1  O   UNL     1      23.169   5.998  48.899  1.00  0.00    -0.454 OA
ENDROOT
BRANCH   1   2
ATOM      2  C   UNL     1      22.927   4.644  48.808  1.00  0.00     0.138 A 
ATOM      3  C   UNL     1      23.556   3.378  52.290  1.00  0.00     0.161 A 
ATOM      4  C   UNL     1      23.451   4.260  51.213  1.00  0.00     0.064 A 
ATOM      5  C   UNL     1      23.265   2.018  52.093  1.00  0.00     0.163 A 
ATOM      6  C   UNL     1      23.060   3.805  49.934  1.00  0.00     0.047 A 
ATOM      7  C   UNL     1      22.876   1.577  50.824  1.00  0.00     0.079 A 
ATOM      8  C   UNL     1      22.760   2.444  49.745  1.00  0.00     0.078 A 
ATOM      9  C   UNL     1      22.452   4.151  47.599  1.00  0.00     0.068 A 
ATOM     10  N   UNL     1      22.349   1.951  48.562  1.00  0.00    -0.256 NA
ATOM     11  C   UNL     1      22.190   2.803  47.526  1.00  0.00     0.115 A 
BRANCH   3  12
ATOM     12  O   UNL     1      23.928   3.742  53.560  1.00  0.00    -0.493 OA
ATOM     13  C   UNL     1      23.794   5.109  53.922  1.00  0.00     0.278 C 
ENDBRANCH   3  12
BRANCH   5  14
ATOM     14  O   UNL     1      23.382   1.219  53.200  1.00  0.00    -0.490 OA
BRANCH  14  15
ATOM     15  C   UNL     1      23.522  -0.190  53.054  1.00  0.00     0.231 C 
BRANCH  15  16
ATOM     16  C   UNL     1      24.898  -0.681  53.514  1.00  0.00     0.057 C 
BRANCH  16  17
ATOM     17  C   UNL     1      25.987  -0.360  52.479  1.00  0.00     0.088 C 
BRANCH  17  18
ATOM     18  N   UNL     1      27.184   0.333  52.969  1.00  0.00    -0.299 NA
ATOM     19  C   UNL     1      27.077   1.802  52.936  1.00  0.00     0.113 C 
ATOM     20  C   UNL     1      27.611  -0.099  54.311  1.00  0.00     0.113 C 
ATOM     21  C   UNL     1      28.402   2.451  53.365  1.00  0.00     0.175 C 
ATOM     22  C   UNL     1      28.924   0.594  54.711  1.00  0.00     0.175 C 
ATOM     23  O   UNL     1      28.789   2.022  54.679  1.00  0.00    -0.379 OA
ENDBRANCH  17  18
ENDBRANCH  16  17
ENDBRANCH  15  16
ENDBRANCH  14  15
ENDBRANCH   5  14
ENDBRANCH   1   2
BRANCH   1  24
ATOM     24  C   UNL     1      24.485   6.393  49.007  1.00  0.00     0.163 A 
ATOM     25  C   UNL     1      25.576   5.599  48.658  1.00  0.00     0.052 A 
ATOM     26  C   UNL     1      24.713   7.700  49.435  1.00  0.00     0.167 A 
ATOM     27  C   UNL     1      26.877   6.115  48.746  1.00  0.00     0.030 A 
ATOM     28  C   UNL     1      26.003   8.215  49.531  1.00  0.00     0.069 A 
ATOM     29  C   UNL     1      27.100   7.424  49.178  1.00  0.00     0.044 A 
ATOM     30  F   UNL     1      23.682   8.485  49.780  1.00  0.00    -0.203 F 
BRANCH  29  31
ATOM     31  N   UNL     1      28.375   8.011  49.281  1.00  0.00    -0.325 N 
ATOM     32  C   UNL     1      29.161   8.495  48.256  1.00  0.00     0.240 C 
ATOM     33  O   UNL     1      28.903   8.540  47.063  1.00  0.00    -0.273 OA
ATOM     34  H   UNL     1      28.742   8.140  50.219  1.00  0.00     0.169 HD
BRANCH  32  35
ATOM     35  C   UNL     1      30.462   9.066  48.733  1.00  0.00     0.128 C 
ATOM     36  C   UNL     1      30.424  10.321  49.606  1.00  0.00     0.028 C 
ATOM     37  C   UNL     1      30.874  10.434  48.185  1.00  0.00     0.028 C 
BRANCH  35  38
ATOM     38  C   UNL     1      31.538   8.062  49.012  1.00  0.00     0.240 C 
ATOM     39  O   UNL     1      32.179   8.160  50.050  1.00  0.00    -0.274 OA
ATOM     40  N   UNL     1      31.678   7.125  48.009  1.00  0.00    -0.325 N 
ATOM     41  H   UNL     1      31.068   7.239  47.206  1.00  0.00     0.169 HD
BRANCH  40  42
ATOM     42  C   UNL     1      32.605   6.068  47.943  1.00  0.00     0.041 A 
ATOM     43  C   UNL     1      33.986   6.233  48.086  1.00  0.00     0.029 A 
ATOM     44  C   UNL     1      32.094   4.782  47.724  1.00  0.00     0.029 A 
ATOM     45  C   UNL     1      34.842   5.131  47.999  1.00  0.00     0.041 A 
ATOM     46  C   UNL     1      32.949   3.681  47.640  1.00  0.00     0.041 A 
ATOM     47  C   UNL     1      34.318   3.866  47.776  1.00  0.00     0.123 A 
ATOM     48  F   UNL     1      35.140   2.813  47.685  1.00  0.00    -0.207 F 
ENDBRANCH  40  42
ENDBRANCH  35  38
ENDBRANCH  32  35
ENDBRANCH  29  31
ENDBRANCH   1  24
TORSDOF 12
ENDMDL
MODEL 13
REMARK VINA RESULT:    -9.192      2.984      5.533
REMARK INTER + INTRA:         -17.216
REMARK INTER:                 -16.142
REMARK INTRA:                  -1.074
REMARK UNBOUND:                -1.575
REMARK SMILES COc1cc2c(Oc3ccc(NC(=O)C4(C(=O)Nc5ccc(F)cc5)CC4)cc3F)ccnc2cc1OCCCN1CCOCC1
REMARK SMILES IDX 7 1 6 2 3 3 4 4 36 5 5 6 35 7 34 8 31 9 33 10 32 11 2 12
REMARK SMILES IDX 1 13 37 14 38 15 39 16 40 17 41 18 42 19 46 20 43 21 45 22
REMARK SMILES IDX 44 23 8 24 9 25 29 26 10 27 28 28 11 29 30 30 12 31 13 32
REMARK SMILES IDX 14 33 15 35 26 36 27 37 16 38 17 39 18 40 19 42 20 43 25 44
REMARK SMILES IDX 21 45 24 46 22 47 23 48
REMARK H PARENT 12 34 18 41
ROOT
ATOM      1  O   UNL     1      25.555   6.263  48.578  1.00  0.00    -0.454 OA
ENDROOT
BRANCH   1   2
ATOM      2  C   UNL     1      26.100   7.421  49.089  1.00  0.00     0.138 A 
ATOM      3  C   UNL     1      29.696   7.284  48.008  1.00  0.00     0.161 A 
ATOM      4  C   UNL     1      28.362   6.912  48.178  1.00  0.00     0.064 A 
ATOM      5  C   UNL     1      30.144   8.499  48.553  1.00  0.00     0.163 A 
ATOM      6  C   UNL     1      27.460   7.735  48.888  1.00  0.00     0.047 A 
ATOM      7  C   UNL     1      29.244   9.309  49.253  1.00  0.00     0.079 A 
ATOM      8  C   UNL     1      27.911   8.955  49.423  1.00  0.00     0.078 A 
ATOM      9  C   UNL     1      25.243   8.316  49.720  1.00  0.00     0.068 A 
ATOM     10  N   UNL     1      27.098   9.802  50.081  1.00  0.00    -0.256 NA
ATOM     11  C   UNL     1      25.792   9.480  50.205  1.00  0.00     0.115 A 
BRANCH   3  12
ATOM     12  O   UNL     1      30.631   6.541  47.331  1.00  0.00    -0.493 OA
ATOM     13  C   UNL     1      30.993   5.280  47.874  1.00  0.00     0.278 C 
ENDBRANCH   3  12
BRANCH   5  14
ATOM     14  O   UNL     1      31.463   8.797  48.335  1.00  0.00    -0.490 OA
BRANCH  14  15
ATOM     15  C   UNL     1      31.821   9.884  47.487  1.00  0.00     0.231 C 
BRANCH  15  16
ATOM     16  C   UNL     1      30.658  10.319  46.591  1.00  0.00     0.057 C 
BRANCH  16  17
ATOM     17  C   UNL     1      30.509  11.848  46.562  1.00  0.00     0.088 C 
BRANCH  17  18
ATOM     18  N   UNL     1      29.205  12.395  46.955  1.00  0.00    -0.299 NA
ATOM     19  C   UNL     1      28.079  11.471  46.730  1.00  0.00     0.113 C 
ATOM     20  C   UNL     1      29.164  12.891  48.342  1.00  0.00     0.113 C 
ATOM     21  C   UNL     1      26.744  12.152  47.068  1.00  0.00     0.175 C 
ATOM     22  C   UNL     1      27.803  13.538  48.646  1.00  0.00     0.175 C 
ATOM     23  O   UNL     1      26.727  12.615  48.427  1.00  0.00    -0.379 OA
ENDBRANCH  17  18
ENDBRANCH  16  17
ENDBRANCH  15  16
ENDBRANCH  14  15
ENDBRANCH   5  14
ENDBRANCH   1   2
BRANCH   1  24
ATOM     24  C   UNL     1      25.813   5.095  49.262  1.00  0.00     0.163 A 
ATOM     25  C   UNL     1      26.869   4.231  48.974  1.00  0.00     0.052 A 
ATOM     26  C   UNL     1      24.991   4.813  50.352  1.00  0.00     0.167 A 
ATOM     27  C   UNL     1      27.085   3.097  49.770  1.00  0.00     0.030 A 
ATOM     28  C   UNL     1      25.197   3.684  51.141  1.00  0.00     0.069 A 
ATOM     29  C   UNL     1      26.256   2.818  50.859  1.00  0.00     0.044 A 
ATOM     30  F   UNL     1      23.966   5.625  50.650  1.00  0.00    -0.203 F 
BRANCH  29  31
ATOM     31  N   UNL     1      26.419   1.705  51.706  1.00  0.00    -0.325 N 
ATOM     32  C   UNL     1      27.417   1.498  52.635  1.00  0.00     0.240 C 
ATOM     33  O   UNL     1      28.339   2.242  52.932  1.00  0.00    -0.273 OA
ATOM     34  H   UNL     1      25.695   0.994  51.667  1.00  0.00     0.169 HD
BRANCH  32  35
ATOM     35  C   UNL     1      27.273   0.202  53.373  1.00  0.00     0.128 C 
ATOM     36  C   UNL     1      27.938   0.072  54.744  1.00  0.00     0.028 C 
ATOM     37  C   UNL     1      28.534  -0.640  53.572  1.00  0.00     0.028 C 
BRANCH  35  38
ATOM     38  C   UNL     1      25.971  -0.511  53.167  1.00  0.00     0.240 C 
ATOM     39  O   UNL     1      25.944  -1.485  52.427  1.00  0.00    -0.274 OA
ATOM     40  N   UNL     1      24.924   0.061  53.861  1.00  0.00    -0.325 N 
ATOM     41  H   UNL     1      25.148   0.894  54.397  1.00  0.00     0.169 HD
BRANCH  40  42
ATOM     42  C   UNL     1      23.575  -0.341  53.867  1.00  0.00     0.041 A 
ATOM     43  C   UNL     1      23.015  -1.176  54.839  1.00  0.00     0.029 A 
ATOM     44  C   UNL     1      22.762   0.136  52.831  1.00  0.00     0.029 A 
ATOM     45  C   UNL     1      21.666  -1.536  54.768  1.00  0.00     0.041 A 
ATOM     46  C   UNL     1      21.414  -0.222  52.762  1.00  0.00     0.041 A 
ATOM     47  C   UNL     1      20.878  -1.058  53.732  1.00  0.00     0.123 A 
ATOM     48  F   UNL     1      19.588  -1.412  53.661  1.00  0.00    -0.207 F 
ENDBRANCH  40  42
ENDBRANCH  35  38
ENDBRANCH  32  35
ENDBRANCH  29  31
ENDBRANCH   1  24
TORSDOF 12
ENDMDL
MODEL 14
REMARK VINA RESULT:    -9.006      2.629      9.623
REMARK INTER + INTRA:         -16.899
REMARK INTER:                 -15.592
REMARK INTRA:                  -1.308
REMARK UNBOUND:                -1.575
REMARK SMILES COc1cc2c(Oc3ccc(NC(=O)C4(C(=O)Nc5ccc(F)cc5)CC4)cc3F)ccnc2cc1OCCCN1CCOCC1
REMARK SMILES IDX 7 1 6 2 3 3 4 4 36 5 5 6 35 7 34 8 31 9 33 10 32 11 2 12
REMARK SMILES IDX 1 13 37 14 38 15 39 16 40 17 41 18 42 19 46 20 43 21 45 22
REMARK SMILES IDX 44 23 8 24 9 25 29 26 10 27 28 28 11 29 30 30 12 31 13 32
REMARK SMILES IDX 14 33 15 35 26 36 27 37 16 38 17 39 18 40 19 42 20 43 25 44
REMARK SMILES IDX 21 45 24 46 22 47 23 48
REMARK H PARENT 12 34 18 41
ROOT
ATOM      1  O   UNL     1      23.903   5.824  48.053  1.00  0.00    -0.454 OA
ENDROOT
BRANCH   1   2
ATOM      2  C   UNL     1      23.162   5.855  49.214  1.00  0.00     0.138 A 
ATOM      3  C   UNL     1      24.315   2.818  51.104  1.00  0.00     0.161 A 
ATOM      4  C   UNL     1      24.205   3.767  50.086  1.00  0.00     0.064 A 
ATOM      5  C   UNL     1      23.527   2.956  52.258  1.00  0.00     0.163 A 
ATOM      6  C   UNL     1      23.315   4.859  50.201  1.00  0.00     0.047 A 
ATOM      7  C   UNL     1      22.650   4.040  52.363  1.00  0.00     0.079 A 
ATOM      8  C   UNL     1      22.535   4.997  51.363  1.00  0.00     0.078 A 
ATOM      9  C   UNL     1      22.335   6.951  49.426  1.00  0.00     0.068 A 
ATOM     10  N   UNL     1      21.693   6.029  51.551  1.00  0.00    -0.256 NA
ATOM     11  C   UNL     1      21.617   6.984  50.599  1.00  0.00     0.115 A 
BRANCH   3  12
ATOM     12  O   UNL     1      25.156   1.734  51.068  1.00  0.00    -0.493 OA
ATOM     13  C   UNL     1      26.547   1.969  51.228  1.00  0.00     0.278 C 
ENDBRANCH   3  12
BRANCH   5  14
ATOM     14  O   UNL     1      23.699   1.989  53.213  1.00  0.00    -0.490 OA
BRANCH  14  15
ATOM     15  C   UNL     1      22.806   0.882  53.280  1.00  0.00     0.231 C 
BRANCH  15  16
ATOM     16  C   UNL     1      23.550  -0.456  53.273  1.00  0.00     0.057 C 
BRANCH  16  17
ATOM     17  C   UNL     1      24.388  -0.643  54.547  1.00  0.00     0.088 C 
BRANCH  17  18
ATOM     18  N   UNL     1      25.838  -0.786  54.371  1.00  0.00    -0.299 NA
ATOM     19  C   UNL     1      26.239  -1.145  53.000  1.00  0.00     0.113 C 
ATOM     20  C   UNL     1      26.608   0.389  54.817  1.00  0.00     0.113 C 
ATOM     21  C   UNL     1      27.757  -1.376  52.923  1.00  0.00     0.175 C 
ATOM     22  C   UNL     1      28.117   0.126  54.697  1.00  0.00     0.175 C 
ATOM     23  O   UNL     1      28.482  -0.213  53.352  1.00  0.00    -0.379 OA
ENDBRANCH  17  18
ENDBRANCH  16  17
ENDBRANCH  15  16
ENDBRANCH  14  15
ENDBRANCH   5  14
ENDBRANCH   1   2
BRANCH   1  24
ATOM     24  C   UNL     1      25.124   6.463  48.073  1.00  0.00     0.163 A 
ATOM     25  C   UNL     1      26.268   5.954  48.685  1.00  0.00     0.052 A 
ATOM     26  C   UNL     1      25.214   7.664  47.371  1.00  0.00     0.167 A 
ATOM     27  C   UNL     1      27.481   6.651  48.597  1.00  0.00     0.030 A 
ATOM     28  C   UNL     1      26.415   8.364  47.286  1.00  0.00     0.069 A 
ATOM     29  C   UNL     1      27.565   7.856  47.895  1.00  0.00     0.044 A 
ATOM     30  F   UNL     1      24.128   8.178  46.774  1.00  0.00    -0.203 F 
BRANCH  29  31
ATOM     31  N   UNL     1      28.749   8.604  47.756  1.00  0.00    -0.325 N 
ATOM     32  C   UNL     1      29.395   9.340  48.727  1.00  0.00     0.240 C 
ATOM     33  O   UNL     1      29.090   9.470  49.904  1.00  0.00    -0.273 OA
ATOM     34  H   UNL     1      29.212   8.560  46.853  1.00  0.00     0.169 HD
BRANCH  32  35
ATOM     35  C   UNL     1      30.643  10.003  48.230  1.00  0.00     0.128 C 
ATOM     36  C   UNL     1      31.071  11.320  48.880  1.00  0.00     0.028 C 
ATOM     37  C   UNL     1      30.489  11.340  47.503  1.00  0.00     0.028 C 
BRANCH  35  38
ATOM     38  C   UNL     1      31.726   9.072  47.778  1.00  0.00     0.240 C 
ATOM     39  O   UNL     1      32.352   9.346  46.763  1.00  0.00    -0.274 OA
ATOM     40  N   UNL     1      31.870   7.971  48.597  1.00  0.00    -0.325 N 
ATOM     41  H   UNL     1      31.223   7.909  49.376  1.00  0.00     0.169 HD
BRANCH  40  42
ATOM     42  C   UNL     1      32.768   6.898  48.444  1.00  0.00     0.041 A 
ATOM     43  C   UNL     1      34.154   7.016  48.588  1.00  0.00     0.029 A 
ATOM     44  C   UNL     1      32.222   5.647  48.131  1.00  0.00     0.029 A 
ATOM     45  C   UNL     1      34.981   5.902  48.412  1.00  0.00     0.041 A 
ATOM     46  C   UNL     1      33.048   4.533  47.957  1.00  0.00     0.041 A 
ATOM     47  C   UNL     1      34.422   4.672  48.097  1.00  0.00     0.123 A 
ATOM     48  F   UNL     1      35.216   3.608  47.919  1.00  0.00    -0.207 F 
ENDBRANCH  40  42
ENDBRANCH  35  38
ENDBRANCH  32  35
ENDBRANCH  29  31
ENDBRANCH   1  24
TORSDOF 12
ENDMDL
MODEL 15
REMARK VINA RESULT:    -8.988      2.901      4.652
REMARK INTER + INTRA:         -16.869
REMARK INTER:                 -16.476
REMARK INTRA:                  -0.392
REMARK UNBOUND:                -1.575
REMARK SMILES COc1cc2c(Oc3ccc(NC(=O)C4(C(=O)Nc5ccc(F)cc5)CC4)cc3F)ccnc2cc1OCCCN1CCOCC1
REMARK SMILES IDX 7 1 6 2 3 3 4 4 36 5 5 6 35 7 34 8 31 9 33 10 32 11 2 12
REMARK SMILES IDX 1 13 37 14 38 15 39 16 40 17 41 18 42 19 46 20 43 21 45 22
REMARK SMILES IDX 44 23 8 24 9 25 29 26 10 27 28 28 11 29 30 30 12 31 13 32
REMARK SMILES IDX 14 33 15 35 26 36 27 37 16 38 17 39 18 40 19 42 20 43 25 44
REMARK SMILES IDX 21 45 24 46 22 47 23 48
REMARK H PARENT 12 34 18 41
ROOT
ATOM      1  O   UNL     1      24.113   5.760  49.118  1.00  0.00    -0.454 OA
ENDROOT
BRANCH   1   2
ATOM      2  C   UNL     1      25.420   5.941  48.724  1.00  0.00     0.138 A 
ATOM      3  C   UNL     1      25.388   9.273  46.986  1.00  0.00     0.161 A 
ATOM      4  C   UNL     1      24.932   8.145  47.670  1.00  0.00     0.064 A 
ATOM      5  C   UNL     1      26.749   9.368  46.651  1.00  0.00     0.163 A 
ATOM      6  C   UNL     1      25.816   7.102  48.027  1.00  0.00     0.047 A 
ATOM      7  C   UNL     1      27.616   8.332  47.009  1.00  0.00     0.079 A 
ATOM      8  C   UNL     1      27.178   7.207  47.697  1.00  0.00     0.078 A 
ATOM      9  C   UNL     1      26.355   4.993  49.124  1.00  0.00     0.068 A 
ATOM     10  N   UNL     1      28.079   6.266  48.035  1.00  0.00    -0.256 NA
ATOM     11  C   UNL     1      27.662   5.196  48.746  1.00  0.00     0.115 A 
BRANCH   3  12
ATOM     12  O   UNL     1      24.594  10.326  46.607  1.00  0.00    -0.493 OA
ATOM     13  C   UNL     1      23.830  10.975  47.614  1.00  0.00     0.278 C 
ENDBRANCH   3  12
BRANCH   5  14
ATOM     14  O   UNL     1      27.119  10.509  45.989  1.00  0.00    -0.490 OA
BRANCH  14  15
ATOM     15  C   UNL     1      28.336  10.545  45.251  1.00  0.00     0.231 C 
BRANCH  15  16
ATOM     16  C   UNL     1      29.213  11.734  45.652  1.00  0.00     0.057 C 
BRANCH  16  17
ATOM     17  C   UNL     1      30.589  11.276  46.161  1.00  0.00     0.088 C 
BRANCH  17  18
ATOM     18  N   UNL     1      30.601  10.204  47.164  1.00  0.00    -0.299 NA
ATOM     19  C   UNL     1      31.879   9.474  47.239  1.00  0.00     0.113 C 
ATOM     20  C   UNL     1      30.209  10.650  48.512  1.00  0.00     0.113 C 
ATOM     21  C   UNL     1      31.778   8.308  48.234  1.00  0.00     0.175 C 
ATOM     22  C   UNL     1      30.147   9.457  49.480  1.00  0.00     0.175 C 
ATOM     23  O   UNL     1      31.405   8.770  49.541  1.00  0.00    -0.379 OA
ENDBRANCH  17  18
ENDBRANCH  16  17
ENDBRANCH  15  16
ENDBRANCH  14  15
ENDBRANCH   5  14
ENDBRANCH   1   2
BRANCH   1  24
ATOM     24  C   UNL     1      23.848   4.679  49.931  1.00  0.00     0.163 A 
ATOM     25  C   UNL     1      23.640   3.380  49.470  1.00  0.00     0.052 A 
ATOM     26  C   UNL     1      23.860   4.912  51.305  1.00  0.00     0.167 A 
ATOM     27  C   UNL     1      23.440   2.335  50.382  1.00  0.00     0.030 A 
ATOM     28  C   UNL     1      23.655   3.878  52.215  1.00  0.00     0.069 A 
ATOM     29  C   UNL     1      23.450   2.574  51.758  1.00  0.00     0.044 A 
ATOM     30  F   UNL     1      24.055   6.152  51.777  1.00  0.00    -0.203 F 
BRANCH  29  31
ATOM     31  N   UNL     1      23.265   1.574  52.732  1.00  0.00    -0.325 N 
ATOM     32  C   UNL     1      22.475   0.447  52.637  1.00  0.00     0.240 C 
ATOM     33  O   UNL     1      21.801   0.075  51.688  1.00  0.00    -0.273 OA
ATOM     34  H   UNL     1      23.812   1.660  53.583  1.00  0.00     0.169 HD
BRANCH  32  35
ATOM     35  C   UNL     1      22.525  -0.411  53.864  1.00  0.00     0.128 C 
ATOM     36  C   UNL     1      21.443  -1.476  54.047  1.00  0.00     0.028 C 
ATOM     37  C   UNL     1      21.403  -0.241  54.890  1.00  0.00     0.028 C 
BRANCH  35  38
ATOM     38  C   UNL     1      23.901  -0.730  54.366  1.00  0.00     0.240 C 
ATOM     39  O   UNL     1      24.016  -1.302  55.441  1.00  0.00    -0.274 OA
ATOM     40  N   UNL     1      24.900  -0.303  53.516  1.00  0.00    -0.325 N 
ATOM     41  H   UNL     1      24.595   0.188  52.682  1.00  0.00     0.169 HD
BRANCH  40  42
ATOM     42  C   UNL     1      26.291  -0.420  53.698  1.00  0.00     0.041 A 
ATOM     43  C   UNL     1      27.021   0.331  54.625  1.00  0.00     0.029 A 
ATOM     44  C   UNL     1      26.965  -1.349  52.896  1.00  0.00     0.029 A 
ATOM     45  C   UNL     1      28.404   0.163  54.739  1.00  0.00     0.041 A 
ATOM     46  C   UNL     1      28.347  -1.519  53.012  1.00  0.00     0.041 A 
ATOM     47  C   UNL     1      29.055  -0.759  53.932  1.00  0.00     0.123 A 
ATOM     48  F   UNL     1      30.381  -0.913  54.036  1.00  0.00    -0.207 F 
ENDBRANCH  40  42
ENDBRANCH  35  38
ENDBRANCH  32  35
ENDBRANCH  29  31
ENDBRANCH   1  24
TORSDOF 12
ENDMDL
MODEL 16
REMARK VINA RESULT:    -8.951      2.274      3.038
REMARK INTER + INTRA:         -16.805
REMARK INTER:                 -14.593
REMARK INTRA:                  -2.212
REMARK UNBOUND:                -1.575
REMARK SMILES COc1cc2c(Oc3ccc(NC(=O)C4(C(=O)Nc5ccc(F)cc5)CC4)cc3F)ccnc2cc1OCCCN1CCOCC1
REMARK SMILES IDX 7 1 6 2 3 3 4 4 36 5 5 6 35 7 34 8 31 9 33 10 32 11 2 12
REMARK SMILES IDX 1 13 37 14 38 15 39 16 40 17 41 18 42 19 46 20 43 21 45 22
REMARK SMILES IDX 44 23 8 24 9 25 29 26 10 27 28 28 11 29 30 30 12 31 13 32
REMARK SMILES IDX 14 33 15 35 26 36 27 37 16 38 17 39 18 40 19 42 20 43 25 44
REMARK SMILES IDX 21 45 24 46 22 47 23 48
REMARK H PARENT 12 34 18 41
ROOT
ATOM      1  O   UNL     1      26.021   8.952  47.777  1.00  0.00    -0.454 OA
ENDROOT
BRANCH   1   2
ATOM      2  C   UNL     1      26.718   9.023  46.590  1.00  0.00     0.138 A 
ATOM      3  C   UNL     1      30.111  10.278  47.607  1.00  0.00     0.161 A 
ATOM      4  C   UNL     1      28.782   9.863  47.704  1.00  0.00     0.064 A 
ATOM      5  C   UNL     1      30.734  10.293  46.348  1.00  0.00     0.163 A 
ATOM      6  C   UNL     1      28.058   9.460  46.559  1.00  0.00     0.047 A 
ATOM      7  C   UNL     1      30.011   9.891  45.221  1.00  0.00     0.079 A 
ATOM      8  C   UNL     1      28.690   9.467  45.303  1.00  0.00     0.078 A 
ATOM      9  C   UNL     1      26.090   8.555  45.442  1.00  0.00     0.068 A 
ATOM     10  N   UNL     1      28.071   9.065  44.178  1.00  0.00    -0.256 NA
ATOM     11  C   UNL     1      26.803   8.608  44.266  1.00  0.00     0.115 A 
BRANCH   3  12
ATOM     12  O   UNL     1      30.879  10.682  48.670  1.00  0.00    -0.493 OA
ATOM     13  C   UNL     1      30.695  12.004  49.155  1.00  0.00     0.278 C 
ENDBRANCH   3  12
BRANCH   5  14
ATOM     14  O   UNL     1      32.041  10.704  46.338  1.00  0.00    -0.490 OA
BRANCH  14  15
ATOM     15  C   UNL     1      33.041   9.897  45.725  1.00  0.00     0.231 C 
BRANCH  15  16
ATOM     16  C   UNL     1      33.943   9.217  46.758  1.00  0.00     0.057 C 
BRANCH  16  17
ATOM     17  C   UNL     1      33.677   7.706  46.833  1.00  0.00     0.088 C 
BRANCH  17  18
ATOM     18  N   UNL     1      32.580   7.268  47.704  1.00  0.00    -0.299 NA
ATOM     19  C   UNL     1      31.431   6.704  46.975  1.00  0.00     0.113 C 
ATOM     20  C   UNL     1      33.000   6.331  48.761  1.00  0.00     0.113 C 
ATOM     21  C   UNL     1      30.287   6.365  47.945  1.00  0.00     0.175 C 
ATOM     22  C   UNL     1      31.821   5.999  49.690  1.00  0.00     0.175 C 
ATOM     23  O   UNL     1      30.720   5.444  48.957  1.00  0.00    -0.379 OA
ENDBRANCH  17  18
ENDBRANCH  16  17
ENDBRANCH  15  16
ENDBRANCH  14  15
ENDBRANCH   5  14
ENDBRANCH   1   2
BRANCH   1  24
ATOM     24  C   UNL     1      25.712   7.694  48.246  1.00  0.00     0.163 A 
ATOM     25  C   UNL     1      26.656   6.729  48.593  1.00  0.00     0.052 A 
ATOM     26  C   UNL     1      24.360   7.413  48.441  1.00  0.00     0.167 A 
ATOM     27  C   UNL     1      26.242   5.499  49.122  1.00  0.00     0.030 A 
ATOM     28  C   UNL     1      23.943   6.190  48.959  1.00  0.00     0.069 A 
ATOM     29  C   UNL     1      24.886   5.221  49.313  1.00  0.00     0.044 A 
ATOM     30  F   UNL     1      23.429   8.321  48.113  1.00  0.00    -0.203 F 
BRANCH  29  31
ATOM     31  N   UNL     1      24.398   4.014  49.846  1.00  0.00    -0.325 N 
ATOM     32  C   UNL     1      23.986   3.775  51.141  1.00  0.00     0.240 C 
ATOM     33  O   UNL     1      23.932   4.563  52.074  1.00  0.00    -0.273 OA
ATOM     34  H   UNL     1      24.289   3.240  49.198  1.00  0.00     0.169 HD
BRANCH  32  35
ATOM     35  C   UNL     1      23.513   2.371  51.357  1.00  0.00     0.128 C 
ATOM     36  C   UNL     1      22.778   1.670  50.213  1.00  0.00     0.028 C 
ATOM     37  C   UNL     1      22.002   2.135  51.404  1.00  0.00     0.028 C 
BRANCH  35  38
ATOM     38  C   UNL     1      24.388   1.528  52.235  1.00  0.00     0.240 C 
ATOM     39  O   UNL     1      23.902   1.022  53.237  1.00  0.00    -0.274 OA
ATOM     40  N   UNL     1      25.688   1.443  51.781  1.00  0.00    -0.325 N 
ATOM     41  H   UNL     1      25.901   1.970  50.940  1.00  0.00     0.169 HD
BRANCH  40  42
ATOM     42  C   UNL     1      26.763   0.759  52.378  1.00  0.00     0.041 A 
ATOM     43  C   UNL     1      26.882  -0.634  52.407  1.00  0.00     0.029 A 
ATOM     44  C   UNL     1      27.765   1.538  52.972  1.00  0.00     0.029 A 
ATOM     45  C   UNL     1      27.979  -1.238  53.029  1.00  0.00     0.041 A 
ATOM     46  C   UNL     1      28.863   0.935  53.591  1.00  0.00     0.041 A 
ATOM     47  C   UNL     1      28.958  -0.450  53.616  1.00  0.00     0.123 A 
ATOM     48  F   UNL     1      30.004  -1.029  54.219  1.00  0.00    -0.207 F 
ENDBRANCH  40  42
ENDBRANCH  35  38
ENDBRANCH  32  35
ENDBRANCH  29  31
ENDBRANCH   1  24
TORSDOF 12
ENDMDL
MODEL 17
REMARK VINA RESULT:    -8.949      2.654      3.351
REMARK INTER + INTRA:         -16.802
REMARK INTER:                 -14.818
REMARK INTRA:                  -1.984
REMARK UNBOUND:                -1.575
REMARK SMILES COc1cc2c(Oc3ccc(NC(=O)C4(C(=O)Nc5ccc(F)cc5)CC4)cc3F)ccnc2cc1OCCCN1CCOCC1
REMARK SMILES IDX 7 1 6 2 3 3 4 4 36 5 5 6 35 7 34 8 31 9 33 10 32 11 2 12
REMARK SMILES IDX 1 13 37 14 38 15 39 16 40 17 41 18 42 19 46 20 43 21 45 22
REMARK SMILES IDX 44 23 8 24 9 25 29 26 10 27 28 28 11 29 30 30 12 31 13 32
REMARK SMILES IDX 14 33 15 35 26 36 27 37 16 38 17 39 18 40 19 42 20 43 25 44
REMARK SMILES IDX 21 45 24 46 22 47 23 48
REMARK H PARENT 12 34 18 41
ROOT
ATOM      1  O   UNL     1      27.411   8.079  46.955  1.00  0.00    -0.454 OA
ENDROOT
BRANCH   1   2
ATOM      2  C   UNL     1      28.314   8.825  47.682  1.00  0.00     0.138 A 
ATOM      3  C   UNL     1      31.663   7.614  46.482  1.00  0.00     0.161 A 
ATOM      4  C   UNL     1      30.278   7.727  46.612  1.00  0.00     0.064 A 
ATOM      5  C   UNL     1      32.494   8.440  47.257  1.00  0.00     0.163 A 
ATOM      6  C   UNL     1      29.703   8.656  47.509  1.00  0.00     0.047 A 
ATOM      7  C   UNL     1      31.917   9.357  48.141  1.00  0.00     0.079 A 
ATOM      8  C   UNL     1      30.540   9.487  48.275  1.00  0.00     0.078 A 
ATOM      9  C   UNL     1      27.811   9.818  48.514  1.00  0.00     0.068 A 
ATOM     10  N   UNL     1      30.059  10.414  49.123  1.00  0.00    -0.256 NA
ATOM     11  C   UNL     1      28.721  10.573  49.217  1.00  0.00     0.115 A 
BRANCH   3  12
ATOM     12  O   UNL     1      32.295   6.740  45.634  1.00  0.00    -0.493 OA
ATOM     13  C   UNL     1      32.220   7.000  44.239  1.00  0.00     0.278 C 
ENDBRANCH   3  12
BRANCH   5  14
ATOM     14  O   UNL     1      33.840   8.274  47.065  1.00  0.00    -0.490 OA
BRANCH  14  15
ATOM     15  C   UNL     1      34.721   8.221  48.183  1.00  0.00     0.231 C 
BRANCH  15  16
ATOM     16  C   UNL     1      35.288   6.815  48.399  1.00  0.00     0.057 C 
BRANCH  16  17
ATOM     17  C   UNL     1      34.185   5.811  48.767  1.00  0.00     0.088 C 
BRANCH  17  18
ATOM     18  N   UNL     1      33.861   4.786  47.768  1.00  0.00    -0.299 NA
ATOM     19  C   UNL     1      34.875   3.723  47.656  1.00  0.00     0.113 C 
ATOM     20  C   UNL     1      32.530   4.180  47.951  1.00  0.00     0.113 C 
ATOM     21  C   UNL     1      34.514   2.750  46.522  1.00  0.00     0.175 C 
ATOM     22  C   UNL     1      32.223   3.195  46.812  1.00  0.00     0.175 C 
ATOM     23  O   UNL     1      33.220   2.166  46.730  1.00  0.00    -0.379 OA
ENDBRANCH  17  18
ENDBRANCH  16  17
ENDBRANCH  15  16
ENDBRANCH  14  15
ENDBRANCH   5  14
ENDBRANCH   1   2
BRANCH   1  24
ATOM     24  C   UNL     1      26.517   7.310  47.667  1.00  0.00     0.163 A 
ATOM     25  C   UNL     1      26.882   6.315  48.572  1.00  0.00     0.052 A 
ATOM     26  C   UNL     1      25.165   7.611  47.505  1.00  0.00     0.167 A 
ATOM     27  C   UNL     1      25.897   5.629  49.297  1.00  0.00     0.030 A 
ATOM     28  C   UNL     1      24.183   6.927  48.217  1.00  0.00     0.069 A 
ATOM     29  C   UNL     1      24.544   5.931  49.128  1.00  0.00     0.044 A 
ATOM     30  F   UNL     1      24.785   8.561  46.639  1.00  0.00    -0.203 F 
BRANCH  29  31
ATOM     31  N   UNL     1      23.502   5.292  49.827  1.00  0.00    -0.325 N 
ATOM     32  C   UNL     1      22.799   4.170  49.440  1.00  0.00     0.240 C 
ATOM     33  O   UNL     1      22.952   3.491  48.436  1.00  0.00    -0.273 OA
ATOM     34  H   UNL     1      23.272   5.665  50.743  1.00  0.00     0.169 HD
BRANCH  32  35
ATOM     35  C   UNL     1      21.762   3.755  50.438  1.00  0.00     0.128 C 
ATOM     36  C   UNL     1      20.388   3.327  49.919  1.00  0.00     0.028 C 
ATOM     37  C   UNL     1      20.533   4.653  50.595  1.00  0.00     0.028 C 
BRANCH  35  38
ATOM     38  C   UNL     1      22.288   3.057  51.656  1.00  0.00     0.240 C 
ATOM     39  O   UNL     1      23.092   3.643  52.368  1.00  0.00    -0.274 OA
ATOM     40  N   UNL     1      21.782   1.783  51.811  1.00  0.00    -0.325 N 
ATOM     41  H   UNL     1      21.147   1.465  51.085  1.00  0.00     0.169 HD
BRANCH  40  42
ATOM     42  C   UNL     1      22.087   0.855  52.824  1.00  0.00     0.041 A 
ATOM     43  C   UNL     1      21.173   0.433  53.795  1.00  0.00     0.029 A 
ATOM     44  C   UNL     1      23.387   0.333  52.843  1.00  0.00     0.029 A 
ATOM     45  C   UNL     1      21.557  -0.487  54.775  1.00  0.00     0.041 A 
ATOM     46  C   UNL     1      23.769  -0.589  53.821  1.00  0.00     0.041 A 
ATOM     47  C   UNL     1      22.850  -0.989  54.781  1.00  0.00     0.123 A 
ATOM     48  F   UNL     1      23.219  -1.864  55.725  1.00  0.00    -0.207 F 
ENDBRANCH  40  42
ENDBRANCH  35  38
ENDBRANCH  32  35
ENDBRANCH  29  31
ENDBRANCH   1  24
TORSDOF 12
ENDMDL
MODEL 18
REMARK VINA RESULT:    -8.941      3.200      5.077
REMARK INTER + INTRA:         -16.788
REMARK INTER:                 -15.014
REMARK INTRA:                  -1.774
REMARK UNBOUND:                -1.575
REMARK SMILES COc1cc2c(Oc3ccc(NC(=O)C4(C(=O)Nc5ccc(F)cc5)CC4)cc3F)ccnc2cc1OCCCN1CCOCC1
REMARK SMILES IDX 7 1 6 2 3 3 4 4 36 5 5 6 35 7 34 8 31 9 33 10 32 11 2 12
REMARK SMILES IDX 1 13 37 14 38 15 39 16 40 17 41 18 42 19 46 20 43 21 45 22
REMARK SMILES IDX 44 23 8 24 9 25 29 26 10 27 28 28 11 29 30 30 12 31 13 32
REMARK SMILES IDX 14 33 15 35 26 36 27 37 16 38 17 39 18 40 19 42 20 43 25 44
REMARK SMILES IDX 21 45 24 46 22 47 23 48
REMARK H PARENT 12 34 18 41
ROOT
ATOM      1  O   UNL     1      24.911   6.237  48.851  1.00  0.00    -0.454 OA
ENDROOT
BRANCH   1   2
ATOM      2  C   UNL     1      25.639   7.389  49.056  1.00  0.00     0.138 A 
ATOM      3  C   UNL     1      26.160   8.760  45.596  1.00  0.00     0.161 A 
ATOM      4  C   UNL     1      25.744   7.910  46.622  1.00  0.00     0.064 A 
ATOM      5  C   UNL     1      26.880   9.922  45.919  1.00  0.00     0.163 A 
ATOM      6  C   UNL     1      26.037   8.201  47.974  1.00  0.00     0.047 A 
ATOM      7  C   UNL     1      27.163  10.203  47.259  1.00  0.00     0.079 A 
ATOM      8  C   UNL     1      26.749   9.371  48.291  1.00  0.00     0.078 A 
ATOM      9  C   UNL     1      25.880   7.777  50.369  1.00  0.00     0.068 A 
ATOM     10  N   UNL     1      27.032   9.725  49.558  1.00  0.00    -0.256 NA
ATOM     11  C   UNL     1      26.587   8.941  50.564  1.00  0.00     0.115 A 
BRANCH   3  12
ATOM     12  O   UNL     1      25.914   8.547  44.263  1.00  0.00    -0.493 OA
ATOM     13  C   UNL     1      24.633   8.055  43.897  1.00  0.00     0.278 C 
ENDBRANCH   3  12
BRANCH   5  14
ATOM     14  O   UNL     1      27.244  10.708  44.857  1.00  0.00    -0.490 OA
BRANCH  14  15
ATOM     15  C   UNL     1      28.617  11.011  44.629  1.00  0.00     0.231 C 
BRANCH  15  16
ATOM     16  C   UNL     1      29.458   9.748  44.433  1.00  0.00     0.057 C 
BRANCH  16  17
ATOM     17  C   UNL     1      30.629   9.689  45.427  1.00  0.00     0.088 C 
BRANCH  17  18
ATOM     18  N   UNL     1      30.343   9.138  46.756  1.00  0.00    -0.299 NA
ATOM     19  C   UNL     1      30.058   7.692  46.753  1.00  0.00     0.113 C 
ATOM     20  C   UNL     1      31.385   9.432  47.757  1.00  0.00     0.113 C 
ATOM     21  C   UNL     1      29.669   7.214  48.161  1.00  0.00     0.175 C 
ATOM     22  C   UNL     1      30.967   8.913  49.142  1.00  0.00     0.175 C 
ATOM     23  O   UNL     1      30.704   7.503  49.112  1.00  0.00    -0.379 OA
ENDBRANCH  17  18
ENDBRANCH  16  17
ENDBRANCH  15  16
ENDBRANCH  14  15
ENDBRANCH   5  14
ENDBRANCH   1   2
BRANCH   1  24
ATOM     24  C   UNL     1      25.365   5.092  49.468  1.00  0.00     0.163 A 
ATOM     25  C   UNL     1      26.551   4.438  49.139  1.00  0.00     0.052 A 
ATOM     26  C   UNL     1      24.603   4.610  50.532  1.00  0.00     0.167 A 
ATOM     27  C   UNL     1      26.959   3.313  49.869  1.00  0.00     0.030 A 
ATOM     28  C   UNL     1      25.000   3.488  51.256  1.00  0.00     0.069 A 
ATOM     29  C   UNL     1      26.191   2.832  50.933  1.00  0.00     0.044 A 
ATOM     30  F   UNL     1      23.455   5.217  50.868  1.00  0.00    -0.203 F 
BRANCH  29  31
ATOM     31  N   UNL     1      26.541   1.716  51.714  1.00  0.00    -0.325 N 
ATOM     32  C   UNL     1      27.365   1.692  52.821  1.00  0.00     0.240 C 
ATOM     33  O   UNL     1      27.931   2.631  53.361  1.00  0.00    -0.273 OA
ATOM     34  H   UNL     1      26.102   0.833  51.471  1.00  0.00     0.169 HD
BRANCH  32  35
ATOM     35  C   UNL     1      27.508   0.325  53.417  1.00  0.00     0.128 C 
ATOM     36  C   UNL     1      28.488   0.142  54.578  1.00  0.00     0.028 C 
ATOM     37  C   UNL     1      28.847  -0.390  53.227  1.00  0.00     0.028 C 
BRANCH  35  38
ATOM     38  C   UNL     1      26.259  -0.502  53.430  1.00  0.00     0.240 C 
ATOM     39  O   UNL     1      26.345  -1.699  53.191  1.00  0.00    -0.274 OA
ATOM     40  N   UNL     1      25.126   0.233  53.709  1.00  0.00    -0.325 N 
ATOM     41  H   UNL     1      25.264   1.229  53.844  1.00  0.00     0.169 HD
BRANCH  40  42
ATOM     42  C   UNL     1      23.797  -0.228  53.771  1.00  0.00     0.041 A 
ATOM     43  C   UNL     1      23.299  -1.036  54.798  1.00  0.00     0.029 A 
ATOM     44  C   UNL     1      22.938   0.159  52.734  1.00  0.00     0.029 A 
ATOM     45  C   UNL     1      21.967  -1.459  54.782  1.00  0.00     0.041 A 
ATOM     46  C   UNL     1      21.605  -0.262  52.720  1.00  0.00     0.041 A 
ATOM     47  C   UNL     1      21.132  -1.070  53.744  1.00  0.00     0.123 A 
ATOM     48  F   UNL     1      19.859  -1.483  53.725  1.00  0.00    -0.207 F 
ENDBRANCH  40  42
ENDBRANCH  35  38
ENDBRANCH  32  35
ENDBRANCH  29  31
ENDBRANCH   1  24
TORSDOF 12
ENDMDL
MODEL 19
REMARK VINA RESULT:    -8.925      2.461      4.152
REMARK INTER + INTRA:         -16.761
REMARK INTER:                 -15.164
REMARK INTRA:                  -1.597
REMARK UNBOUND:                -1.575
REMARK SMILES COc1cc2c(Oc3ccc(NC(=O)C4(C(=O)Nc5ccc(F)cc5)CC4)cc3F)ccnc2cc1OCCCN1CCOCC1
REMARK SMILES IDX 7 1 6 2 3 3 4 4 36 5 5 6 35 7 34 8 31 9 33 10 32 11 2 12
REMARK SMILES IDX 1 13 37 14 38 15 39 16 40 17 41 18 42 19 46 20 43 21 45 22
REMARK SMILES IDX 44 23 8 24 9 25 29 26 10 27 28 28 11 29 30 30 12 31 13 32
REMARK SMILES IDX 14 33 15 35 26 36 27 37 16 38 17 39 18 40 19 42 20 43 25 44
REMARK SMILES IDX 21 45 24 46 22 47 23 48
REMARK H PARENT 12 34 18 41
ROOT
ATOM      1  O   UNL     1      26.222   8.252  49.280  1.00  0.00    -0.454 OA
ENDROOT
BRANCH   1   2
ATOM      2  C   UNL     1      26.645   8.325  47.971  1.00  0.00     0.138 A 
ATOM      3  C   UNL     1      30.381   7.997  48.207  1.00  0.00     0.161 A 
ATOM      4  C   UNL     1      29.044   8.085  48.598  1.00  0.00     0.064 A 
ATOM      5  C   UNL     1      30.701   8.060  46.841  1.00  0.00     0.163 A 
ATOM      6  C   UNL     1      28.013   8.238  47.643  1.00  0.00     0.047 A 
ATOM      7  C   UNL     1      29.675   8.210  45.903  1.00  0.00     0.079 A 
ATOM      8  C   UNL     1      28.339   8.291  46.276  1.00  0.00     0.078 A 
ATOM      9  C   UNL     1      25.673   8.384  46.979  1.00  0.00     0.068 A 
ATOM     10  N   UNL     1      27.406   8.402  45.313  1.00  0.00    -0.256 NA
ATOM     11  C   UNL     1      26.104   8.432  45.674  1.00  0.00     0.115 A 
BRANCH   3  12
ATOM     12  O   UNL     1      31.435   7.847  49.072  1.00  0.00    -0.493 OA
ATOM     13  C   UNL     1      31.726   6.538  49.540  1.00  0.00     0.278 C 
ENDBRANCH   3  12
BRANCH   5  14
ATOM     14  O   UNL     1      32.033   7.958  46.538  1.00  0.00    -0.490 OA
BRANCH  14  15
ATOM     15  C   UNL     1      32.713   9.047  45.922  1.00  0.00     0.231 C 
BRANCH  15  16
ATOM     16  C   UNL     1      33.318  10.003  46.953  1.00  0.00     0.057 C 
BRANCH  16  17
ATOM     17  C   UNL     1      32.605  11.364  46.950  1.00  0.00     0.088 C 
BRANCH  17  18
ATOM     18  N   UNL     1      31.163  11.357  47.225  1.00  0.00    -0.299 NA
ATOM     19  C   UNL     1      30.813  11.828  48.576  1.00  0.00     0.113 C 
ATOM     20  C   UNL     1      30.366  12.089  46.226  1.00  0.00     0.113 C 
ATOM     21  C   UNL     1      29.301  11.694  48.821  1.00  0.00     0.175 C 
ATOM     22  C   UNL     1      28.864  11.951  46.524  1.00  0.00     0.175 C 
ATOM     23  O   UNL     1      28.549  12.425  47.841  1.00  0.00    -0.379 OA
ENDBRANCH  17  18
ENDBRANCH  16  17
ENDBRANCH  15  16
ENDBRANCH  14  15
ENDBRANCH   5  14
ENDBRANCH   1   2
BRANCH   1  24
ATOM     24  C   UNL     1      25.727   7.041  49.712  1.00  0.00     0.163 A 
ATOM     25  C   UNL     1      26.255   5.802  49.352  1.00  0.00     0.052 A 
ATOM     26  C   UNL     1      24.669   7.085  50.620  1.00  0.00     0.167 A 
ATOM     27  C   UNL     1      25.718   4.626  49.895  1.00  0.00     0.030 A 
ATOM     28  C   UNL     1      24.129   5.919  51.157  1.00  0.00     0.069 A 
ATOM     29  C   UNL     1      24.657   4.675  50.802  1.00  0.00     0.044 A 
ATOM     30  F   UNL     1      24.140   8.262  50.981  1.00  0.00    -0.203 F 
BRANCH  29  31
ATOM     31  N   UNL     1      24.076   3.538  51.394  1.00  0.00    -0.325 N 
ATOM     32  C   UNL     1      23.417   2.506  50.758  1.00  0.00     0.240 C 
ATOM     33  O   UNL     1      23.230   2.353  49.560  1.00  0.00    -0.273 OA
ATOM     34  H   UNL     1      24.194   3.436  52.397  1.00  0.00     0.169 HD
BRANCH  32  35
ATOM     35  C   UNL     1      22.934   1.447  51.702  1.00  0.00     0.128 C 
ATOM     36  C   UNL     1      21.734   0.597  51.282  1.00  0.00     0.028 C 
ATOM     37  C   UNL     1      21.556   1.643  52.336  1.00  0.00     0.028 C 
BRANCH  35  38
ATOM     38  C   UNL     1      24.000   0.782  52.518  1.00  0.00     0.240 C 
ATOM     39  O   UNL     1      23.679   0.208  53.550  1.00  0.00    -0.274 OA
ATOM     40  N   UNL     1      25.262   0.923  51.979  1.00  0.00    -0.325 N 
ATOM     41  H   UNL     1      25.323   1.470  51.126  1.00  0.00     0.169 HD
BRANCH  40  42
ATOM     42  C   UNL     1      26.479   0.446  52.503  1.00  0.00     0.041 A 
ATOM     43  C   UNL     1      27.470   1.271  53.045  1.00  0.00     0.029 A 
ATOM     44  C   UNL     1      26.689  -0.938  52.471  1.00  0.00     0.029 A 
ATOM     45  C   UNL     1      28.656   0.719  53.538  1.00  0.00     0.041 A 
ATOM     46  C   UNL     1      27.874  -1.489  52.966  1.00  0.00     0.041 A 
ATOM     47  C   UNL     1      28.849  -0.654  53.493  1.00  0.00     0.123 A 
ATOM     48  F   UNL     1      29.990  -1.180  53.957  1.00  0.00    -0.207 F 
ENDBRANCH  40  42
ENDBRANCH  35  38
ENDBRANCH  32  35
ENDBRANCH  29  31
ENDBRANCH   1  24
TORSDOF 12
ENDMDL
MODEL 20
REMARK VINA RESULT:    -8.873      2.495      3.525
REMARK INTER + INTRA:         -16.672
REMARK INTER:                 -14.430
REMARK INTRA:                  -2.242
REMARK UNBOUND:                -1.575
REMARK SMILES COc1cc2c(Oc3ccc(NC(=O)C4(C(=O)Nc5ccc(F)cc5)CC4)cc3F)ccnc2cc1OCCCN1CCOCC1
REMARK SMILES IDX 7 1 6 2 3 3 4 4 36 5 5 6 35 7 34 8 31 9 33 10 32 11 2 12
REMARK SMILES IDX 1 13 37 14 38 15 39 16 40 17 41 18 42 19 46 20 43 21 45 22
REMARK SMILES IDX 44 23 8 24 9 25 29 26 10 27 28 28 11 29 30 30 12 31 13 32
REMARK SMILES IDX 14 33 15 35 26 36 27 37 16 38 17 39 18 40 19 42 20 43 25 44
REMARK SMILES IDX 21 45 24 46 22 47 23 48
REMARK H PARENT 12 34 18 41
ROOT
ATOM      1  O   UNL     1      28.255   8.066  48.782  1.00  0.00    -0.454 OA
ENDROOT
BRANCH   1   2
ATOM      2  C   UNL     1      28.502   8.339  47.454  1.00  0.00     0.138 A 
ATOM      3  C   UNL     1      32.105   7.379  46.988  1.00  0.00     0.161 A 
ATOM      4  C   UNL     1      30.875   7.596  47.610  1.00  0.00     0.064 A 
ATOM      5  C   UNL     1      32.243   7.672  45.621  1.00  0.00     0.163 A 
ATOM      6  C   UNL     1      29.772   8.105  46.887  1.00  0.00     0.047 A 
ATOM      7  C   UNL     1      31.146   8.173  44.913  1.00  0.00     0.079 A 
ATOM      8  C   UNL     1      29.913   8.387  45.517  1.00  0.00     0.078 A 
ATOM      9  C   UNL     1      27.434   8.756  46.669  1.00  0.00     0.068 A 
ATOM     10  N   UNL     1      28.896   8.842  44.763  1.00  0.00    -0.256 NA
ATOM     11  C   UNL     1      27.685   9.004  45.340  1.00  0.00     0.115 A 
BRANCH   3  12
ATOM     12  O   UNL     1      33.220   6.887  47.619  1.00  0.00    -0.493 OA
ATOM     13  C   UNL     1      33.740   7.626  48.714  1.00  0.00     0.278 C 
ENDBRANCH   3  12
BRANCH   5  14
ATOM     14  O   UNL     1      33.478   7.423  45.083  1.00  0.00    -0.490 OA
BRANCH  14  15
ATOM     15  C   UNL     1      33.599   7.029  43.719  1.00  0.00     0.231 C 
BRANCH  15  16
ATOM     16  C   UNL     1      33.338   5.533  43.529  1.00  0.00     0.057 C 
BRANCH  16  17
ATOM     17  C   UNL     1      34.444   4.680  44.170  1.00  0.00     0.088 C 
BRANCH  17  18
ATOM     18  N   UNL     1      34.069   3.878  45.340  1.00  0.00    -0.299 NA
ATOM     19  C   UNL     1      34.851   4.186  46.550  1.00  0.00     0.113 C 
ATOM     20  C   UNL     1      32.631   3.928  45.657  1.00  0.00     0.113 C 
ATOM     21  C   UNL     1      34.471   3.236  47.697  1.00  0.00     0.175 C 
ATOM     22  C   UNL     1      32.300   2.986  46.826  1.00  0.00     0.175 C 
ATOM     23  O   UNL     1      33.069   3.314  47.992  1.00  0.00    -0.379 OA
ENDBRANCH  17  18
ENDBRANCH  16  17
ENDBRANCH  15  16
ENDBRANCH  14  15
ENDBRANCH   5  14
ENDBRANCH   1   2
BRANCH   1  24
ATOM     24  C   UNL     1      27.246   7.169  49.059  1.00  0.00     0.163 A 
ATOM     25  C   UNL     1      27.268   5.823  48.697  1.00  0.00     0.052 A 
ATOM     26  C   UNL     1      26.172   7.648  49.809  1.00  0.00     0.167 A 
ATOM     27  C   UNL     1      26.219   4.976  49.081  1.00  0.00     0.030 A 
ATOM     28  C   UNL     1      25.124   6.812  50.186  1.00  0.00     0.069 A 
ATOM     29  C   UNL     1      25.144   5.461  49.829  1.00  0.00     0.044 A 
ATOM     30  F   UNL     1      26.123   8.939  50.168  1.00  0.00    -0.203 F 
BRANCH  29  31
ATOM     31  N   UNL     1      24.062   4.668  50.257  1.00  0.00    -0.325 N 
ATOM     32  C   UNL     1      23.183   3.953  49.470  1.00  0.00     0.240 C 
ATOM     33  O   UNL     1      23.180   3.840  48.253  1.00  0.00    -0.273 OA
ATOM     34  H   UNL     1      23.940   4.567  51.260  1.00  0.00     0.169 HD
BRANCH  32  35
ATOM     35  C   UNL     1      22.155   3.208  50.264  1.00  0.00     0.128 C 
ATOM     36  C   UNL     1      21.124   2.370  49.507  1.00  0.00     0.028 C 
ATOM     37  C   UNL     1      20.699   3.659  50.134  1.00  0.00     0.028 C 
BRANCH  35  38
ATOM     38  C   UNL     1      22.621   2.696  51.594  1.00  0.00     0.240 C 
ATOM     39  O   UNL     1      22.844   3.500  52.488  1.00  0.00    -0.274 OA
ATOM     40  N   UNL     1      22.755   1.323  51.628  1.00  0.00    -0.325 N 
ATOM     41  H   UNL     1      22.552   0.834  50.762  1.00  0.00     0.169 HD
BRANCH  40  42
ATOM     42  C   UNL     1      23.193   0.530  52.705  1.00  0.00     0.041 A 
ATOM     43  C   UNL     1      22.340  -0.234  53.508  1.00  0.00     0.029 A 
ATOM     44  C   UNL     1      24.569   0.515  52.970  1.00  0.00     0.029 A 
ATOM     45  C   UNL     1      22.854  -0.990  54.566  1.00  0.00     0.041 A 
ATOM     46  C   UNL     1      25.082  -0.243  54.025  1.00  0.00     0.041 A 
ATOM     47  C   UNL     1      24.219  -0.987  54.816  1.00  0.00     0.123 A 
ATOM     48  F   UNL     1      24.709  -1.705  55.835  1.00  0.00    -0.207 F 
ENDBRANCH  40  42
ENDBRANCH  35  38
ENDBRANCH  32  35
ENDBRANCH  29  31
ENDBRANCH   1  24
TORSDOF 12
ENDMDL
