MODEL 1
REMARK VINA RESULT:    -9.024      0.000      0.000
REMARK INTER + INTRA:         -12.931
REMARK INTER:                 -11.662
REMARK INTRA:                  -1.269
REMARK UNBOUND:                -1.269
REMARK SMILES CC1(C)CNc2cc(NC(=O)c3cccnc3NCc3ccncc3)ccc21
REMARK SMILES IDX 12 1 13 2 14 3 15 4 16 5 17 6 10 7 9 8 11 9 8 11 2 12 4 13
REMARK SMILES IDX 28 14 5 15 27 16 6 17 26 18 7 19 1 20 3 21 18 23 19 25 20 26
REMARK SMILES IDX 21 27 25 28 22 29 24 30 23 31
REMARK H PARENT 9 10 5 22 18 24
ROOT
ATOM      1  C   UNL     1      23.008   2.210  51.208  1.00  0.00     0.082 A 
ATOM      2  C   UNL     1      21.846   2.163  50.424  1.00  0.00     0.019 A 
ATOM      3  C   UNL     1      20.980   1.088  50.565  1.00  0.00     0.021 A 
ATOM      4  C   UNL     1      21.314   0.104  51.476  1.00  0.00     0.113 A 
ATOM      5  N   UNL     1      22.435   0.123  52.233  1.00  0.00    -0.239 NA
ATOM      6  C   UNL     1      23.290   1.165  52.101  1.00  0.00     0.139 A 
ENDROOT
BRANCH   1   7
ATOM      7  C   UNL     1      23.963   3.330  51.038  1.00  0.00     0.259 C 
ATOM      8  N   UNL     1      24.358   3.552  49.732  1.00  0.00    -0.322 N 
ATOM      9  O   UNL     1      24.312   3.942  52.042  1.00  0.00    -0.269 OA
ATOM     10  H   UNL     1      23.903   2.999  49.017  1.00  0.00     0.170 HD
BRANCH   8  11
ATOM     11  C   UNL     1      25.274   4.520  49.266  1.00  0.00     0.043 A 
ATOM     12  C   UNL     1      28.031   7.474  47.883  1.00  0.00     0.009 C 
ATOM     13  C   UNL     1      29.201   6.450  47.805  1.00  0.00     0.124 C 
ATOM     14  C   UNL     1      26.919   6.554  48.307  1.00  0.00    -0.017 A 
ATOM     15  N   UNL     1      28.879   5.329  48.705  1.00  0.00    -0.384 N 
ATOM     16  C   UNL     1      25.552   6.769  48.337  1.00  0.00     0.008 A 
ATOM     17  C   UNL     1      27.462   5.342  48.732  1.00  0.00     0.040 A 
ATOM     18  C   UNL     1      24.732   5.742  48.813  1.00  0.00     0.026 A 
ATOM     19  C   UNL     1      26.659   4.330  49.235  1.00  0.00     0.052 A 
ATOM     20  C   UNL     1      28.293   8.536  48.959  1.00  0.00     0.018 C 
ATOM     21  C   UNL     1      27.782   8.134  46.527  1.00  0.00     0.018 C 
ATOM     22  H   UNL     1      29.234   4.421  48.415  1.00  0.00     0.160 HD
ENDBRANCH   8  11
ENDBRANCH   1   7
BRANCH   6  23
ATOM     23  N   UNL     1      24.418   1.242  52.935  1.00  0.00    -0.365 N 
ATOM     24  H   UNL     1      24.756   2.208  52.931  1.00  0.00     0.162 HD
BRANCH  23  25
ATOM     25  C   UNL     1      25.483   0.281  52.704  1.00  0.00     0.150 C 
BRANCH  25  26
ATOM     26  C   UNL     1      26.776   0.751  53.323  1.00  0.00    -0.026 A 
ATOM     27  C   UNL     1      27.476  -0.054  54.224  1.00  0.00     0.025 A 
ATOM     28  C   UNL     1      27.301   2.011  53.017  1.00  0.00     0.025 A 
ATOM     29  C   UNL     1      28.659   0.424  54.767  1.00  0.00     0.111 A 
ATOM     30  C   UNL     1      28.491   2.399  53.610  1.00  0.00     0.111 A 
ATOM     31  N   UNL     1      29.189   1.630  54.474  1.00  0.00    -0.265 NA
ENDBRANCH  25  26
ENDBRANCH  23  25
ENDBRANCH   6  23
TORSDOF 5
ENDMDL
MODEL 2
REMARK VINA RESULT:    -8.890      2.470      5.347
REMARK INTER + INTRA:         -12.758
REMARK INTER:                 -11.589
REMARK INTRA:                  -1.169
REMARK UNBOUND:                -1.269
REMARK SMILES CC1(C)CNc2cc(NC(=O)c3cccnc3NCc3ccncc3)ccc21
REMARK SMILES IDX 12 1 13 2 14 3 15 4 16 5 17 6 10 7 9 8 11 9 8 11 2 12 4 13
REMARK SMILES IDX 28 14 5 15 27 16 6 17 26 18 7 19 1 20 3 21 18 23 19 25 20 26
REMARK SMILES IDX 21 27 25 28 22 29 24 30 23 31
REMARK H PARENT 9 10 5 22 18 24
ROOT
ATOM      1  C   UNL     1      27.848   0.640  53.107  1.00  0.00     0.082 A 
ATOM      2  C   UNL     1      29.226   0.853  53.245  1.00  0.00     0.019 A 
ATOM      3  C   UNL     1      30.047  -0.223  53.551  1.00  0.00     0.021 A 
ATOM      4  C   UNL     1      29.456  -1.461  53.714  1.00  0.00     0.113 A 
ATOM      5  N   UNL     1      28.128  -1.686  53.597  1.00  0.00    -0.239 NA
ATOM      6  C   UNL     1      27.315  -0.643  53.302  1.00  0.00     0.139 A 
ENDROOT
BRANCH   1   7
ATOM      7  C   UNL     1      26.954   1.787  52.820  1.00  0.00     0.259 C 
ATOM      8  N   UNL     1      26.794   2.065  51.475  1.00  0.00    -0.322 N 
ATOM      9  O   UNL     1      26.452   2.374  53.773  1.00  0.00    -0.269 OA
ATOM     10  H   UNL     1      27.221   1.422  50.822  1.00  0.00     0.170 HD
BRANCH   8  11
ATOM     11  C   UNL     1      26.034   3.107  50.900  1.00  0.00     0.043 A 
ATOM     12  C   UNL     1      23.737   6.240  49.125  1.00  0.00     0.009 C 
ATOM     13  C   UNL     1      22.735   6.279  50.316  1.00  0.00     0.124 C 
ATOM     14  C   UNL     1      24.692   5.195  49.633  1.00  0.00    -0.017 A 
ATOM     15  N   UNL     1      22.799   4.977  51.001  1.00  0.00    -0.384 N 
ATOM     16  C   UNL     1      25.948   4.840  49.171  1.00  0.00     0.008 A 
ATOM     17  C   UNL     1      24.116   4.534  50.718  1.00  0.00     0.040 A 
ATOM     18  C   UNL     1      26.618   3.796  49.816  1.00  0.00     0.026 A 
ATOM     19  C   UNL     1      24.760   3.477  51.343  1.00  0.00     0.052 A 
ATOM     20  C   UNL     1      23.052   5.766  47.838  1.00  0.00     0.018 C 
ATOM     21  C   UNL     1      24.395   7.604  48.912  1.00  0.00     0.018 C 
ATOM     22  H   UNL     1      22.626   5.001  52.003  1.00  0.00     0.160 HD
ENDBRANCH   8  11
ENDBRANCH   1   7
BRANCH   6  23
ATOM     23  N   UNL     1      25.944  -0.872  53.099  1.00  0.00    -0.365 N 
ATOM     24  H   UNL     1      25.598  -0.180  52.429  1.00  0.00     0.162 HD
BRANCH  23  25
ATOM     25  C   UNL     1      25.103  -0.969  54.280  1.00  0.00     0.150 C 
BRANCH  25  26
ATOM     26  C   UNL     1      23.709  -0.472  53.990  1.00  0.00    -0.026 A 
ATOM     27  C   UNL     1      22.617  -0.922  54.736  1.00  0.00     0.025 A 
ATOM     28  C   UNL     1      23.474   0.443  52.960  1.00  0.00     0.025 A 
ATOM     29  C   UNL     1      21.355  -0.436  54.430  1.00  0.00     0.111 A 
ATOM     30  C   UNL     1      22.176   0.871  52.731  1.00  0.00     0.111 A 
ATOM     31  N   UNL     1      21.108   0.458  53.449  1.00  0.00    -0.265 NA
ENDBRANCH  25  26
ENDBRANCH  23  25
ENDBRANCH   6  23
TORSDOF 5
ENDMDL
MODEL 3
REMARK VINA RESULT:    -8.886      1.697      2.433
REMARK INTER + INTRA:         -12.753
REMARK INTER:                 -11.458
REMARK INTRA:                  -1.295
REMARK UNBOUND:                -1.269
REMARK SMILES CC1(C)CNc2cc(NC(=O)c3cccnc3NCc3ccncc3)ccc21
REMARK SMILES IDX 12 1 13 2 14 3 15 4 16 5 17 6 10 7 9 8 11 9 8 11 2 12 4 13
REMARK SMILES IDX 28 14 5 15 27 16 6 17 26 18 7 19 1 20 3 21 18 23 19 25 20 26
REMARK SMILES IDX 21 27 25 28 22 29 24 30 23 31
REMARK H PARENT 9 10 5 22 18 24
ROOT
ATOM      1  C   UNL     1      22.503   0.817  52.871  1.00  0.00     0.082 A 
ATOM      2  C   UNL     1      21.172   0.985  53.279  1.00  0.00     0.019 A 
ATOM      3  C   UNL     1      20.664   0.165  54.276  1.00  0.00     0.021 A 
ATOM      4  C   UNL     1      21.502  -0.791  54.817  1.00  0.00     0.113 A 
ATOM      5  N   UNL     1      22.785  -0.978  54.431  1.00  0.00    -0.239 NA
ATOM      6  C   UNL     1      23.291  -0.187  53.455  1.00  0.00     0.139 A 
ENDROOT
BRANCH   1   7
ATOM      7  C   UNL     1      23.047   1.657  51.778  1.00  0.00     0.259 C 
ATOM      8  N   UNL     1      23.638   2.834  52.202  1.00  0.00    -0.322 N 
ATOM      9  O   UNL     1      22.926   1.250  50.628  1.00  0.00    -0.269 OA
ATOM     10  H   UNL     1      23.721   2.969  53.201  1.00  0.00     0.170 HD
BRANCH   8  11
ATOM     11  C   UNL     1      24.213   3.842  51.398  1.00  0.00     0.043 A 
ATOM     12  C   UNL     1      25.947   6.918  48.996  1.00  0.00     0.009 C 
ATOM     13  C   UNL     1      27.066   5.974  48.467  1.00  0.00     0.124 C 
ATOM     14  C   UNL     1      25.173   5.943  49.839  1.00  0.00    -0.017 A 
ATOM     15  N   UNL     1      27.220   4.872  49.432  1.00  0.00    -0.384 N 
ATOM     16  C   UNL     1      23.918   6.065  50.412  1.00  0.00     0.008 A 
ATOM     17  C   UNL     1      25.934   4.789  50.024  1.00  0.00     0.040 A 
ATOM     18  C   UNL     1      23.440   5.004  51.187  1.00  0.00     0.026 A 
ATOM     19  C   UNL     1      25.481   3.746  50.817  1.00  0.00     0.052 A 
ATOM     20  C   UNL     1      26.531   8.039  49.865  1.00  0.00     0.018 C 
ATOM     21  C   UNL     1      25.127   7.503  47.845  1.00  0.00     0.018 C 
ATOM     22  H   UNL     1      27.501   3.979  49.034  1.00  0.00     0.160 HD
ENDBRANCH   8  11
ENDBRANCH   1   7
BRANCH   6  23
ATOM     23  N   UNL     1      24.644  -0.313  53.096  1.00  0.00    -0.365 N 
ATOM     24  H   UNL     1      24.708  -0.967  52.311  1.00  0.00     0.162 HD
BRANCH  23  25
ATOM     25  C   UNL     1      25.587  -0.625  54.156  1.00  0.00     0.150 C 
BRANCH  25  26
ATOM     26  C   UNL     1      26.771   0.309  54.114  1.00  0.00    -0.026 A 
ATOM     27  C   UNL     1      26.690   1.544  53.468  1.00  0.00     0.025 A 
ATOM     28  C   UNL     1      27.984  -0.045  54.714  1.00  0.00     0.025 A 
ATOM     29  C   UNL     1      27.806   2.366  53.456  1.00  0.00     0.111 A 
ATOM     30  C   UNL     1      29.044   0.845  54.650  1.00  0.00     0.111 A 
ATOM     31  N   UNL     1      28.982   2.049  54.041  1.00  0.00    -0.265 NA
ENDBRANCH  25  26
ENDBRANCH  23  25
ENDBRANCH   6  23
TORSDOF 5
ENDMDL
MODEL 4
REMARK VINA RESULT:    -8.830      2.514      5.375
REMARK INTER + INTRA:         -12.680
REMARK INTER:                 -11.306
REMARK INTRA:                  -1.374
REMARK UNBOUND:                -1.269
REMARK SMILES CC1(C)CNc2cc(NC(=O)c3cccnc3NCc3ccncc3)ccc21
REMARK SMILES IDX 12 1 13 2 14 3 15 4 16 5 17 6 10 7 9 8 11 9 8 11 2 12 4 13
REMARK SMILES IDX 28 14 5 15 27 16 6 17 26 18 7 19 1 20 3 21 18 23 19 25 20 26
REMARK SMILES IDX 21 27 25 28 22 29 24 30 23 31
REMARK H PARENT 9 10 5 22 18 24
ROOT
ATOM      1  C   UNL     1      26.967   1.549  53.367  1.00  0.00     0.082 A 
ATOM      2  C   UNL     1      28.199   2.161  53.638  1.00  0.00     0.019 A 
ATOM      3  C   UNL     1      29.196   1.424  54.260  1.00  0.00     0.021 A 
ATOM      4  C   UNL     1      28.917   0.113  54.593  1.00  0.00     0.113 A 
ATOM      5  N   UNL     1      27.733  -0.494  54.352  1.00  0.00    -0.239 NA
ATOM      6  C   UNL     1      26.750   0.216  53.749  1.00  0.00     0.139 A 
ENDROOT
BRANCH   1   7
ATOM      7  C   UNL     1      25.878   2.336  52.740  1.00  0.00     0.259 C 
ATOM      8  N   UNL     1      26.025   2.530  51.379  1.00  0.00    -0.322 N 
ATOM      9  O   UNL     1      24.972   2.738  53.462  1.00  0.00    -0.269 OA
ATOM     10  H   UNL     1      26.797   2.055  50.930  1.00  0.00     0.170 HD
BRANCH   8  11
ATOM     11  C   UNL     1      25.172   3.258  50.520  1.00  0.00     0.043 A 
ATOM     12  C   UNL     1      22.565   5.455  47.949  1.00  0.00     0.009 C 
ATOM     13  C   UNL     1      23.653   6.524  47.638  1.00  0.00     0.124 C 
ATOM     14  C   UNL     1      23.364   4.529  48.824  1.00  0.00    -0.017 A 
ATOM     15  N   UNL     1      24.637   6.497  48.734  1.00  0.00    -0.384 N 
ATOM     16  C   UNL     1      23.072   3.248  49.261  1.00  0.00     0.008 A 
ATOM     17  C   UNL     1      24.543   5.165  49.211  1.00  0.00     0.040 A 
ATOM     18  C   UNL     1      23.987   2.613  50.106  1.00  0.00     0.026 A 
ATOM     19  C   UNL     1      25.441   4.556  50.074  1.00  0.00     0.052 A 
ATOM     20  C   UNL     1      21.396   6.065  48.732  1.00  0.00     0.018 C 
ATOM     21  C   UNL     1      22.062   4.789  46.667  1.00  0.00     0.018 C 
ATOM     22  H   UNL     1      25.592   6.727  48.469  1.00  0.00     0.160 HD
ENDBRANCH   8  11
ENDBRANCH   1   7
BRANCH   6  23
ATOM     23  N   UNL     1      25.541  -0.420  53.419  1.00  0.00    -0.365 N 
ATOM     24  H   UNL     1      25.092   0.112  52.668  1.00  0.00     0.162 HD
BRANCH  23  25
ATOM     25  C   UNL     1      24.628  -0.719  54.509  1.00  0.00     0.150 C 
BRANCH  25  26
ATOM     26  C   UNL     1      23.195  -0.638  54.049  1.00  0.00    -0.026 A 
ATOM     27  C   UNL     1      22.173  -1.269  54.762  1.00  0.00     0.025 A 
ATOM     28  C   UNL     1      22.854   0.064  52.888  1.00  0.00     0.025 A 
ATOM     29  C   UNL     1      20.872  -1.165  54.297  1.00  0.00     0.111 A 
ATOM     30  C   UNL     1      21.523   0.111  52.504  1.00  0.00     0.111 A 
ATOM     31  N   UNL     1      20.520  -0.481  53.187  1.00  0.00    -0.265 NA
ENDBRANCH  25  26
ENDBRANCH  23  25
ENDBRANCH   6  23
TORSDOF 5
ENDMDL
MODEL 5
REMARK VINA RESULT:    -8.781      1.903      2.909
REMARK INTER + INTRA:         -12.617
REMARK INTER:                 -11.568
REMARK INTRA:                  -1.049
REMARK UNBOUND:                -1.269
REMARK SMILES CC1(C)CNc2cc(NC(=O)c3cccnc3NCc3ccncc3)ccc21
REMARK SMILES IDX 12 1 13 2 14 3 15 4 16 5 17 6 10 7 9 8 11 9 8 11 2 12 4 13
REMARK SMILES IDX 28 14 5 15 27 16 6 17 26 18 7 19 1 20 3 21 18 23 19 25 20 26
REMARK SMILES IDX 21 27 25 28 22 29 24 30 23 31
REMARK H PARENT 9 10 5 22 18 24
ROOT
ATOM      1  C   UNL     1      22.507   0.810  52.869  1.00  0.00     0.082 A 
ATOM      2  C   UNL     1      21.193   0.965  53.332  1.00  0.00     0.019 A 
ATOM      3  C   UNL     1      20.716   0.104  54.310  1.00  0.00     0.021 A 
ATOM      4  C   UNL     1      21.567  -0.879  54.776  1.00  0.00     0.113 A 
ATOM      5  N   UNL     1      22.833  -1.054  54.336  1.00  0.00    -0.239 NA
ATOM      6  C   UNL     1      23.309  -0.223  53.379  1.00  0.00     0.139 A 
ENDROOT
BRANCH   1   7
ATOM      7  C   UNL     1      23.017   1.696  51.796  1.00  0.00     0.259 C 
ATOM      8  N   UNL     1      23.604   2.863  52.249  1.00  0.00    -0.322 N 
ATOM      9  O   UNL     1      22.874   1.329  50.635  1.00  0.00    -0.269 OA
ATOM     10  H   UNL     1      23.708   2.963  53.251  1.00  0.00     0.170 HD
BRANCH   8  11
ATOM     11  C   UNL     1      24.149   3.907  51.470  1.00  0.00     0.043 A 
ATOM     12  C   UNL     1      25.781   7.048  49.082  1.00  0.00     0.009 C 
ATOM     13  C   UNL     1      25.430   8.134  50.141  1.00  0.00     0.124 C 
ATOM     14  C   UNL     1      25.318   5.821  49.817  1.00  0.00    -0.017 A 
ATOM     15  N   UNL     1      24.343   7.607  50.983  1.00  0.00    -0.384 N 
ATOM     16  C   UNL     1      25.547   4.483  49.543  1.00  0.00     0.008 A 
ATOM     17  C   UNL     1      24.533   6.204  50.904  1.00  0.00     0.040 A 
ATOM     18  C   UNL     1      24.963   3.528  50.381  1.00  0.00     0.026 A 
ATOM     19  C   UNL     1      23.924   5.264  51.721  1.00  0.00     0.052 A 
ATOM     20  C   UNL     1      24.971   7.246  47.795  1.00  0.00     0.018 C 
ATOM     21  C   UNL     1      27.280   7.038  48.777  1.00  0.00     0.018 C 
ATOM     22  H   UNL     1      24.345   7.925  51.949  1.00  0.00     0.160 HD
ENDBRANCH   8  11
ENDBRANCH   1   7
BRANCH   6  23
ATOM     23  N   UNL     1      24.647  -0.340  52.966  1.00  0.00    -0.365 N 
ATOM     24  H   UNL     1      24.681  -0.967  52.158  1.00  0.00     0.162 HD
BRANCH  23  25
ATOM     25  C   UNL     1      25.629  -0.688  53.980  1.00  0.00     0.150 C 
BRANCH  25  26
ATOM     26  C   UNL     1      26.772   0.295  53.983  1.00  0.00    -0.026 A 
ATOM     27  C   UNL     1      26.729   1.450  53.198  1.00  0.00     0.025 A 
ATOM     28  C   UNL     1      27.909   0.069  54.766  1.00  0.00     0.025 A 
ATOM     29  C   UNL     1      27.806   2.322  53.236  1.00  0.00     0.111 A 
ATOM     30  C   UNL     1      28.934   1.001  54.736  1.00  0.00     0.111 A 
ATOM     31  N   UNL     1      28.907   2.130  53.994  1.00  0.00    -0.265 NA
ENDBRANCH  25  26
ENDBRANCH  23  25
ENDBRANCH   6  23
TORSDOF 5
ENDMDL
MODEL 6
REMARK VINA RESULT:    -8.602      3.527      5.819
REMARK INTER + INTRA:         -12.385
REMARK INTER:                 -11.430
REMARK INTRA:                  -0.955
REMARK UNBOUND:                -1.269
REMARK SMILES CC1(C)CNc2cc(NC(=O)c3cccnc3NCc3ccncc3)ccc21
REMARK SMILES IDX 12 1 13 2 14 3 15 4 16 5 17 6 10 7 9 8 11 9 8 11 2 12 4 13
REMARK SMILES IDX 28 14 5 15 27 16 6 17 26 18 7 19 1 20 3 21 18 23 19 25 20 26
REMARK SMILES IDX 21 27 25 28 22 29 24 30 23 31
REMARK H PARENT 9 10 5 22 18 24
ROOT
ATOM      1  C   UNL     1      27.277   1.717  52.911  1.00  0.00     0.082 A 
ATOM      2  C   UNL     1      28.448   2.306  53.408  1.00  0.00     0.019 A 
ATOM      3  C   UNL     1      29.184   1.632  54.372  1.00  0.00     0.021 A 
ATOM      4  C   UNL     1      28.716   0.407  54.804  1.00  0.00     0.113 A 
ATOM      5  N   UNL     1      27.583  -0.174  54.347  1.00  0.00    -0.239 NA
ATOM      6  C   UNL     1      26.853   0.476  53.409  1.00  0.00     0.139 A 
ENDROOT
BRANCH   1   7
ATOM      7  C   UNL     1      26.459   2.443  51.910  1.00  0.00     0.259 C 
ATOM      8  N   UNL     1      25.269   2.947  52.402  1.00  0.00    -0.322 N 
ATOM      9  O   UNL     1      26.893   2.526  50.767  1.00  0.00    -0.269 OA
ATOM     10  H   UNL     1      25.110   2.853  53.397  1.00  0.00     0.170 HD
BRANCH   8  11
ATOM     11  C   UNL     1      24.275   3.651  51.688  1.00  0.00     0.043 A 
ATOM     12  C   UNL     1      21.247   5.751  49.531  1.00  0.00     0.009 C 
ATOM     13  C   UNL     1      21.544   7.088  50.271  1.00  0.00     0.124 C 
ATOM     14  C   UNL     1      22.309   4.882  50.144  1.00  0.00    -0.017 A 
ATOM     15  N   UNL     1      22.205   6.759  51.546  1.00  0.00    -0.384 N 
ATOM     16  C   UNL     1      22.759   3.628  49.765  1.00  0.00     0.008 A 
ATOM     17  C   UNL     1      22.838   5.522  51.264  1.00  0.00     0.040 A 
ATOM     18  C   UNL     1      23.751   3.020  50.540  1.00  0.00     0.026 A 
ATOM     19  C   UNL     1      23.798   4.913  52.057  1.00  0.00     0.052 A 
ATOM     20  C   UNL     1      19.849   5.223  49.878  1.00  0.00     0.018 C 
ATOM     21  C   UNL     1      21.398   5.912  48.017  1.00  0.00     0.018 C 
ATOM     22  H   UNL     1      22.874   7.448  51.881  1.00  0.00     0.160 HD
ENDBRANCH   8  11
ENDBRANCH   1   7
BRANCH   6  23
ATOM     23  N   UNL     1      25.717  -0.147  52.865  1.00  0.00    -0.365 N 
ATOM     24  H   UNL     1      25.140   0.571  52.418  1.00  0.00     0.162 HD
BRANCH  23  25
ATOM     25  C   UNL     1      24.946  -1.010  53.744  1.00  0.00     0.150 C 
BRANCH  25  26
ATOM     26  C   UNL     1      23.511  -0.554  53.823  1.00  0.00    -0.026 A 
ATOM     27  C   UNL     1      22.650  -1.054  54.803  1.00  0.00     0.025 A 
ATOM     28  C   UNL     1      23.002   0.373  52.907  1.00  0.00     0.025 A 
ATOM     29  C   UNL     1      21.339  -0.605  54.832  1.00  0.00     0.111 A 
ATOM     30  C   UNL     1      21.676   0.761  53.019  1.00  0.00     0.111 A 
ATOM     31  N   UNL     1      20.832   0.300  53.967  1.00  0.00    -0.265 NA
ENDBRANCH  25  26
ENDBRANCH  23  25
ENDBRANCH   6  23
TORSDOF 5
ENDMDL
MODEL 7
REMARK VINA RESULT:    -8.528      2.087      7.839
REMARK INTER + INTRA:         -12.290
REMARK INTER:                 -10.928
REMARK INTRA:                  -1.362
REMARK UNBOUND:                -1.269
REMARK SMILES CC1(C)CNc2cc(NC(=O)c3cccnc3NCc3ccncc3)ccc21
REMARK SMILES IDX 12 1 13 2 14 3 15 4 16 5 17 6 10 7 9 8 11 9 8 11 2 12 4 13
REMARK SMILES IDX 28 14 5 15 27 16 6 17 26 18 7 19 1 20 3 21 18 23 19 25 20 26
REMARK SMILES IDX 21 27 25 28 22 29 24 30 23 31
REMARK H PARENT 9 10 5 22 18 24
ROOT
ATOM      1  C   UNL     1      26.126   1.461  53.420  1.00  0.00     0.082 A 
ATOM      2  C   UNL     1      26.444   0.486  54.375  1.00  0.00     0.019 A 
ATOM      3  C   UNL     1      27.776   0.159  54.588  1.00  0.00     0.021 A 
ATOM      4  C   UNL     1      28.730   0.813  53.833  1.00  0.00     0.113 A 
ATOM      5  N   UNL     1      28.445   1.747  52.898  1.00  0.00    -0.239 NA
ATOM      6  C   UNL     1      27.149   2.072  52.678  1.00  0.00     0.139 A 
ENDROOT
BRANCH   1   7
ATOM      7  C   UNL     1      24.707   1.791  53.152  1.00  0.00     0.259 C 
ATOM      8  N   UNL     1      23.931   0.712  52.770  1.00  0.00    -0.322 N 
ATOM      9  O   UNL     1      24.355   2.959  53.285  1.00  0.00    -0.269 OA
ATOM     10  H   UNL     1      24.372  -0.198  52.791  1.00  0.00     0.170 HD
BRANCH   8  11
ATOM     11  C   UNL     1      22.562   0.721  52.422  1.00  0.00     0.043 A 
ATOM     12  C   UNL     1      18.417   0.775  51.398  1.00  0.00     0.009 C 
ATOM     13  C   UNL     1      18.717   0.669  49.874  1.00  0.00     0.124 C 
ATOM     14  C   UNL     1      19.819   0.699  51.937  1.00  0.00    -0.017 A 
ATOM     15  N   UNL     1      20.091   1.150  49.652  1.00  0.00    -0.384 N 
ATOM     16  C   UNL     1      20.262   0.504  53.234  1.00  0.00     0.008 A 
ATOM     17  C   UNL     1      20.724   0.888  50.893  1.00  0.00     0.040 A 
ATOM     18  C   UNL     1      21.640   0.509  53.469  1.00  0.00     0.026 A 
ATOM     19  C   UNL     1      22.091   0.926  51.122  1.00  0.00     0.052 A 
ATOM     20  C   UNL     1      17.776   2.124  51.745  1.00  0.00     0.018 C 
ATOM     21  C   UNL     1      17.528  -0.378  51.868  1.00  0.00     0.018 C 
ATOM     22  H   UNL     1      20.590   0.708  48.883  1.00  0.00     0.160 HD
ENDBRANCH   8  11
ENDBRANCH   1   7
BRANCH   6  23
ATOM     23  N   UNL     1      26.839   3.096  51.768  1.00  0.00    -0.365 N 
ATOM     24  H   UNL     1      26.076   3.655  52.160  1.00  0.00     0.162 HD
BRANCH  23  25
ATOM     25  C   UNL     1      26.591   2.709  50.389  1.00  0.00     0.150 C 
BRANCH  25  26
ATOM     26  C   UNL     1      25.619   3.656  49.731  1.00  0.00    -0.026 A 
ATOM     27  C   UNL     1      24.300   3.271  49.479  1.00  0.00     0.025 A 
ATOM     28  C   UNL     1      26.019   4.939  49.345  1.00  0.00     0.025 A 
ATOM     29  C   UNL     1      23.446   4.178  48.871  1.00  0.00     0.111 A 
ATOM     30  C   UNL     1      25.090   5.773  48.743  1.00  0.00     0.111 A 
ATOM     31  N   UNL     1      23.807   5.425  48.503  1.00  0.00    -0.265 NA
ENDBRANCH  25  26
ENDBRANCH  23  25
ENDBRANCH   6  23
TORSDOF 5
ENDMDL
MODEL 8
REMARK VINA RESULT:    -8.469      1.174      1.760
REMARK INTER + INTRA:         -12.214
REMARK INTER:                 -11.139
REMARK INTRA:                  -1.075
REMARK UNBOUND:                -1.269
REMARK SMILES CC1(C)CNc2cc(NC(=O)c3cccnc3NCc3ccncc3)ccc21
REMARK SMILES IDX 12 1 13 2 14 3 15 4 16 5 17 6 10 7 9 8 11 9 8 11 2 12 4 13
REMARK SMILES IDX 28 14 5 15 27 16 6 17 26 18 7 19 1 20 3 21 18 23 19 25 20 26
REMARK SMILES IDX 21 27 25 28 22 29 24 30 23 31
REMARK H PARENT 9 10 5 22 18 24
ROOT
ATOM      1  C   UNL     1      23.365   2.897  50.587  1.00  0.00     0.082 A 
ATOM      2  C   UNL     1      22.365   2.776  49.612  1.00  0.00     0.019 A 
ATOM      3  C   UNL     1      21.503   1.689  49.661  1.00  0.00     0.021 A 
ATOM      4  C   UNL     1      21.681   0.769  50.675  1.00  0.00     0.113 A 
ATOM      5  N   UNL     1      22.646   0.860  51.619  1.00  0.00    -0.239 NA
ATOM      6  C   UNL     1      23.496   1.914  51.579  1.00  0.00     0.139 A 
ENDROOT
BRANCH   1   7
ATOM      7  C   UNL     1      24.319   4.030  50.523  1.00  0.00     0.259 C 
ATOM      8  N   UNL     1      25.083   4.069  49.371  1.00  0.00    -0.322 N 
ATOM      9  O   UNL     1      24.350   4.807  51.471  1.00  0.00    -0.269 OA
ATOM     10  H   UNL     1      24.865   3.389  48.655  1.00  0.00     0.170 HD
BRANCH   8  11
ATOM     11  C   UNL     1      26.089   5.004  49.041  1.00  0.00     0.043 A 
ATOM     12  C   UNL     1      29.137   7.811  48.010  1.00  0.00     0.009 C 
ATOM     13  C   UNL     1      28.276   9.024  48.468  1.00  0.00     0.124 C 
ATOM     14  C   UNL     1      28.207   6.688  48.378  1.00  0.00    -0.017 A 
ATOM     15  N   UNL     1      26.863   8.610  48.439  1.00  0.00    -0.384 N 
ATOM     16  C   UNL     1      28.444   5.327  48.454  1.00  0.00     0.008 A 
ATOM     17  C   UNL     1      26.940   7.209  48.642  1.00  0.00     0.040 A 
ATOM     18  C   UNL     1      27.379   4.488  48.794  1.00  0.00     0.026 A 
ATOM     19  C   UNL     1      25.870   6.382  48.948  1.00  0.00     0.052 A 
ATOM     20  C   UNL     1      29.377   7.840  46.496  1.00  0.00     0.018 C 
ATOM     21  C   UNL     1      30.468   7.762  48.763  1.00  0.00     0.018 C 
ATOM     22  H   UNL     1      26.265   9.051  49.134  1.00  0.00     0.160 HD
ENDBRANCH   8  11
ENDBRANCH   1   7
BRANCH   6  23
ATOM     23  N   UNL     1      24.453   2.067  52.596  1.00  0.00    -0.365 N 
ATOM     24  H   UNL     1      25.177   2.709  52.262  1.00  0.00     0.162 HD
BRANCH  23  25
ATOM     25  C   UNL     1      25.011   0.856  53.174  1.00  0.00     0.150 C 
BRANCH  25  26
ATOM     26  C   UNL     1      26.429   1.082  53.634  1.00  0.00    -0.026 A 
ATOM     27  C   UNL     1      27.067   0.165  54.472  1.00  0.00     0.025 A 
ATOM     28  C   UNL     1      27.136   2.223  53.242  1.00  0.00     0.025 A 
ATOM     29  C   UNL     1      28.371   0.419  54.868  1.00  0.00     0.111 A 
ATOM     30  C   UNL     1      28.437   2.388  53.691  1.00  0.00     0.111 A 
ATOM     31  N   UNL     1      29.077   1.506  54.490  1.00  0.00    -0.265 NA
ENDBRANCH  25  26
ENDBRANCH  23  25
ENDBRANCH   6  23
TORSDOF 5
ENDMDL
MODEL 9
REMARK VINA RESULT:    -8.455      2.236      7.574
REMARK INTER + INTRA:         -12.196
REMARK INTER:                 -11.189
REMARK INTRA:                  -1.008
REMARK UNBOUND:                -1.269
REMARK SMILES CC1(C)CNc2cc(NC(=O)c3cccnc3NCc3ccncc3)ccc21
REMARK SMILES IDX 12 1 13 2 14 3 15 4 16 5 17 6 10 7 9 8 11 9 8 11 2 12 4 13
REMARK SMILES IDX 28 14 5 15 27 16 6 17 26 18 7 19 1 20 3 21 18 23 19 25 20 26
REMARK SMILES IDX 21 27 25 28 22 29 24 30 23 31
REMARK H PARENT 9 10 5 22 18 24
ROOT
ATOM      1  C   UNL     1      25.919   5.965  48.821  1.00  0.00     0.082 A 
ATOM      2  C   UNL     1      24.595   6.090  48.379  1.00  0.00     0.019 A 
ATOM      3  C   UNL     1      24.165   7.307  47.871  1.00  0.00     0.021 A 
ATOM      4  C   UNL     1      25.072   8.348  47.833  1.00  0.00     0.113 A 
ATOM      5  N   UNL     1      26.350   8.254  48.265  1.00  0.00    -0.239 NA
ATOM      6  C   UNL     1      26.780   7.072  48.767  1.00  0.00     0.139 A 
ENDROOT
BRANCH   1   7
ATOM      7  C   UNL     1      26.381   4.684  49.405  1.00  0.00     0.259 C 
ATOM      8  N   UNL     1      25.586   4.203  50.429  1.00  0.00    -0.322 N 
ATOM      9  O   UNL     1      27.400   4.179  48.946  1.00  0.00    -0.269 OA
ATOM     10  H   UNL     1      24.734   4.712  50.623  1.00  0.00     0.170 HD
BRANCH   8  11
ATOM     11  C   UNL     1      25.786   3.031  51.192  1.00  0.00     0.043 A 
ATOM     12  C   UNL     1      26.380  -0.533  53.468  1.00  0.00     0.009 C 
ATOM     13  C   UNL     1      27.730  -0.022  54.052  1.00  0.00     0.124 C 
ATOM     14  C   UNL     1      25.982   0.673  52.663  1.00  0.00    -0.017 A 
ATOM     15  N   UNL     1      28.253   1.010  53.141  1.00  0.00    -0.384 N 
ATOM     16  C   UNL     1      24.769   0.984  52.071  1.00  0.00     0.008 A 
ATOM     17  C   UNL     1      27.078   1.527  52.539  1.00  0.00     0.040 A 
ATOM     18  C   UNL     1      24.676   2.173  51.341  1.00  0.00     0.026 A 
ATOM     19  C   UNL     1      27.003   2.691  51.790  1.00  0.00     0.052 A 
ATOM     20  C   UNL     1      26.595  -1.746  52.554  1.00  0.00     0.018 C 
ATOM     21  C   UNL     1      25.388  -0.869  54.581  1.00  0.00     0.018 C 
ATOM     22  H   UNL     1      28.796   1.749  53.582  1.00  0.00     0.160 HD
ENDBRANCH   8  11
ENDBRANCH   1   7
BRANCH   6  23
ATOM     23  N   UNL     1      28.126   6.932  49.147  1.00  0.00    -0.365 N 
ATOM     24  H   UNL     1      28.229   7.284  50.103  1.00  0.00     0.162 HD
BRANCH  23  25
ATOM     25  C   UNL     1      29.131   7.471  48.246  1.00  0.00     0.150 C 
BRANCH  25  26
ATOM     26  C   UNL     1      30.406   6.669  48.320  1.00  0.00    -0.026 A 
ATOM     27  C   UNL     1      30.516   5.433  47.679  1.00  0.00     0.025 A 
ATOM     28  C   UNL     1      31.507   7.139  49.043  1.00  0.00     0.025 A 
ATOM     29  C   UNL     1      31.709   4.733  47.778  1.00  0.00     0.111 A 
ATOM     30  C   UNL     1      32.657   6.366  49.082  1.00  0.00     0.111 A 
ATOM     31  N   UNL     1      32.788   5.175  48.459  1.00  0.00    -0.265 NA
ENDBRANCH  25  26
ENDBRANCH  23  25
ENDBRANCH   6  23
TORSDOF 5
ENDMDL
MODEL 10
REMARK VINA RESULT:    -8.204      2.988      3.601
REMARK INTER + INTRA:         -11.870
REMARK INTER:                 -10.848
REMARK INTRA:                  -1.023
REMARK UNBOUND:                -1.269
REMARK SMILES CC1(C)CNc2cc(NC(=O)c3cccnc3NCc3ccncc3)ccc21
REMARK SMILES IDX 12 1 13 2 14 3 15 4 16 5 17 6 10 7 9 8 11 9 8 11 2 12 4 13
REMARK SMILES IDX 28 14 5 15 27 16 6 17 26 18 7 19 1 20 3 21 18 23 19 25 20 26
REMARK SMILES IDX 21 27 25 28 22 29 24 30 23 31
REMARK H PARENT 9 10 5 22 18 24
ROOT
ATOM      1  C   UNL     1      22.184   0.722  52.706  1.00  0.00     0.082 A 
ATOM      2  C   UNL     1      20.824   0.478  52.942  1.00  0.00     0.019 A 
ATOM      3  C   UNL     1      20.463  -0.540  53.813  1.00  0.00     0.021 A 
ATOM      4  C   UNL     1      21.473  -1.275  54.402  1.00  0.00     0.113 A 
ATOM      5  N   UNL     1      22.790  -1.065  54.179  1.00  0.00    -0.239 NA
ATOM      6  C   UNL     1      23.155  -0.077  53.328  1.00  0.00     0.139 A 
ENDROOT
BRANCH   1   7
ATOM      7  C   UNL     1      22.584   1.779  51.747  1.00  0.00     0.259 C 
ATOM      8  N   UNL     1      22.192   3.055  52.106  1.00  0.00    -0.322 N 
ATOM      9  O   UNL     1      23.206   1.438  50.746  1.00  0.00    -0.269 OA
ATOM     10  H   UNL     1      21.754   3.160  53.012  1.00  0.00     0.170 HD
BRANCH   8  11
ATOM     11  C   UNL     1      22.400   4.251  51.385  1.00  0.00     0.043 A 
ATOM     12  C   UNL     1      22.991   7.874  49.202  1.00  0.00     0.009 C 
ATOM     13  C   UNL     1      24.187   8.305  50.101  1.00  0.00     0.124 C 
ATOM     14  C   UNL     1      22.689   6.532  49.812  1.00  0.00    -0.017 A 
ATOM     15  N   UNL     1      24.062   7.598  51.387  1.00  0.00    -0.384 N 
ATOM     16  C   UNL     1      21.886   5.505  49.345  1.00  0.00     0.008 A 
ATOM     17  C   UNL     1      23.351   6.423  51.034  1.00  0.00     0.040 A 
ATOM     18  C   UNL     1      21.751   4.361  50.136  1.00  0.00     0.026 A 
ATOM     19  C   UNL     1      23.198   5.305  51.840  1.00  0.00     0.052 A 
ATOM     20  C   UNL     1      21.799   8.824  49.370  1.00  0.00     0.018 C 
ATOM     21  C   UNL     1      23.406   7.788  47.733  1.00  0.00     0.018 C 
ATOM     22  H   UNL     1      24.940   7.373  51.848  1.00  0.00     0.160 HD
ENDBRANCH   8  11
ENDBRANCH   1   7
BRANCH   6  23
ATOM     23  N   UNL     1      24.519   0.208  53.145  1.00  0.00    -0.365 N 
ATOM     24  H   UNL     1      24.768  -0.018  52.178  1.00  0.00     0.162 HD
BRANCH  23  25
ATOM     25  C   UNL     1      25.452  -0.360  54.104  1.00  0.00     0.150 C 
BRANCH  25  26
ATOM     26  C   UNL     1      26.729   0.441  54.151  1.00  0.00    -0.026 A 
ATOM     27  C   UNL     1      26.808   1.705  53.562  1.00  0.00     0.025 A 
ATOM     28  C   UNL     1      27.872  -0.069  54.777  1.00  0.00     0.025 A 
ATOM     29  C   UNL     1      28.005   2.400  53.631  1.00  0.00     0.111 A 
ATOM     30  C   UNL     1      29.023   0.703  54.794  1.00  0.00     0.111 A 
ATOM     31  N   UNL     1      29.115   1.932  54.242  1.00  0.00    -0.265 NA
ENDBRANCH  25  26
ENDBRANCH  23  25
ENDBRANCH   6  23
TORSDOF 5
ENDMDL
MODEL 11
REMARK VINA RESULT:    -8.188      2.202      7.674
REMARK INTER + INTRA:         -11.851
REMARK INTER:                 -11.180
REMARK INTRA:                  -0.671
REMARK UNBOUND:                -1.269
REMARK SMILES CC1(C)CNc2cc(NC(=O)c3cccnc3NCc3ccncc3)ccc21
REMARK SMILES IDX 12 1 13 2 14 3 15 4 16 5 17 6 10 7 9 8 11 9 8 11 2 12 4 13
REMARK SMILES IDX 28 14 5 15 27 16 6 17 26 18 7 19 1 20 3 21 18 23 19 25 20 26
REMARK SMILES IDX 21 27 25 28 22 29 24 30 23 31
REMARK H PARENT 9 10 5 22 18 24
ROOT
ATOM      1  C   UNL     1      25.845   6.210  48.775  1.00  0.00     0.082 A 
ATOM      2  C   UNL     1      24.538   6.458  48.332  1.00  0.00     0.019 A 
ATOM      3  C   UNL     1      24.217   7.720  47.853  1.00  0.00     0.021 A 
ATOM      4  C   UNL     1      25.210   8.680  47.845  1.00  0.00     0.113 A 
ATOM      5  N   UNL     1      26.473   8.466  48.278  1.00  0.00    -0.239 NA
ATOM      6  C   UNL     1      26.798   7.239  48.752  1.00  0.00     0.139 A 
ENDROOT
BRANCH   1   7
ATOM      7  C   UNL     1      26.192   4.879  49.328  1.00  0.00     0.259 C 
ATOM      8  N   UNL     1      25.361   4.447  50.344  1.00  0.00    -0.322 N 
ATOM      9  O   UNL     1      27.161   4.296  48.852  1.00  0.00    -0.269 OA
ATOM     10  H   UNL     1      24.558   5.026  50.554  1.00  0.00     0.170 HD
BRANCH   8  11
ATOM     11  C   UNL     1      25.458   3.246  51.080  1.00  0.00     0.043 A 
ATOM     12  C   UNL     1      25.777  -0.371  53.328  1.00  0.00     0.009 C 
ATOM     13  C   UNL     1      24.244  -0.633  53.261  1.00  0.00     0.124 C 
ATOM     14  C   UNL     1      25.855   0.880  52.497  1.00  0.00    -0.017 A 
ATOM     15  N   UNL     1      23.577   0.655  53.008  1.00  0.00    -0.384 N 
ATOM     16  C   UNL     1      26.958   1.520  51.958  1.00  0.00     0.008 A 
ATOM     17  C   UNL     1      24.572   1.398  52.323  1.00  0.00     0.040 A 
ATOM     18  C   UNL     1      26.751   2.703  51.242  1.00  0.00     0.026 A 
ATOM     19  C   UNL     1      24.360   2.586  51.642  1.00  0.00     0.052 A 
ATOM     20  C   UNL     1      26.230  -0.092  54.767  1.00  0.00     0.018 C 
ATOM     21  C   UNL     1      26.565  -1.539  52.734  1.00  0.00     0.018 C 
ATOM     22  H   UNL     1      22.717   0.603  52.467  1.00  0.00     0.160 HD
ENDBRANCH   8  11
ENDBRANCH   1   7
BRANCH   6  23
ATOM     23  N   UNL     1      28.124   6.976  49.132  1.00  0.00    -0.365 N 
ATOM     24  H   UNL     1      28.236   7.240  50.115  1.00  0.00     0.162 HD
BRANCH  23  25
ATOM     25  C   UNL     1      29.178   7.515  48.289  1.00  0.00     0.150 C 
BRANCH  25  26
ATOM     26  C   UNL     1      30.408   6.644  48.341  1.00  0.00    -0.026 A 
ATOM     27  C   UNL     1      30.467   5.441  47.634  1.00  0.00     0.025 A 
ATOM     28  C   UNL     1      31.517   7.015  49.109  1.00  0.00     0.025 A 
ATOM     29  C   UNL     1      31.620   4.676  47.715  1.00  0.00     0.111 A 
ATOM     30  C   UNL     1      32.624   6.181  49.126  1.00  0.00     0.111 A 
ATOM     31  N   UNL     1      32.706   5.021  48.439  1.00  0.00    -0.265 NA
ENDBRANCH  25  26
ENDBRANCH  23  25
ENDBRANCH   6  23
TORSDOF 5
ENDMDL
MODEL 12
REMARK VINA RESULT:    -8.135      1.751      2.337
REMARK INTER + INTRA:         -11.782
REMARK INTER:                 -10.714
REMARK INTRA:                  -1.068
REMARK UNBOUND:                -1.269
REMARK SMILES CC1(C)CNc2cc(NC(=O)c3cccnc3NCc3ccncc3)ccc21
REMARK SMILES IDX 12 1 13 2 14 3 15 4 16 5 17 6 10 7 9 8 11 9 8 11 2 12 4 13
REMARK SMILES IDX 28 14 5 15 27 16 6 17 26 18 7 19 1 20 3 21 18 23 19 25 20 26
REMARK SMILES IDX 21 27 25 28 22 29 24 30 23 31
REMARK H PARENT 9 10 5 22 18 24
ROOT
ATOM      1  C   UNL     1      24.607   3.276  50.075  1.00  0.00     0.082 A 
ATOM      2  C   UNL     1      23.811   2.967  48.963  1.00  0.00     0.019 A 
ATOM      3  C   UNL     1      22.561   2.399  49.165  1.00  0.00     0.021 A 
ATOM      4  C   UNL     1      22.165   2.156  50.466  1.00  0.00     0.113 A 
ATOM      5  N   UNL     1      22.920   2.435  51.552  1.00  0.00    -0.239 NA
ATOM      6  C   UNL     1      24.144   2.986  51.368  1.00  0.00     0.139 A 
ENDROOT
BRANCH   1   7
ATOM      7  C   UNL     1      25.960   3.846  49.874  1.00  0.00     0.259 C 
ATOM      8  N   UNL     1      25.988   4.996  49.107  1.00  0.00    -0.322 N 
ATOM      9  O   UNL     1      26.909   3.262  50.386  1.00  0.00    -0.269 OA
ATOM     10  H   UNL     1      25.094   5.384  48.832  1.00  0.00     0.170 HD
BRANCH   8  11
ATOM     11  C   UNL     1      27.123   5.742  48.721  1.00  0.00     0.043 A 
ATOM     12  C   UNL     1      30.553   8.020  47.589  1.00  0.00     0.009 C 
ATOM     13  C   UNL     1      31.325   6.756  47.111  1.00  0.00     0.124 C 
ATOM     14  C   UNL     1      29.245   7.386  47.975  1.00  0.00    -0.017 A 
ATOM     15  N   UNL     1      30.739   5.587  47.789  1.00  0.00    -0.384 N 
ATOM     16  C   UNL     1      28.025   7.973  48.264  1.00  0.00     0.008 A 
ATOM     17  C   UNL     1      29.406   6.002  48.040  1.00  0.00     0.040 A 
ATOM     18  C   UNL     1      26.963   7.142  48.631  1.00  0.00     0.026 A 
ATOM     19  C   UNL     1      28.367   5.173  48.434  1.00  0.00     0.052 A 
ATOM     20  C   UNL     1      31.228   8.654  48.812  1.00  0.00     0.018 C 
ATOM     21  C   UNL     1      30.417   9.044  46.462  1.00  0.00     0.018 C 
ATOM     22  H   UNL     1      30.761   4.719  47.259  1.00  0.00     0.160 HD
ENDBRANCH   8  11
ENDBRANCH   1   7
BRANCH   6  23
ATOM     23  N   UNL     1      24.910   3.356  52.486  1.00  0.00    -0.365 N 
ATOM     24  H   UNL     1      25.836   3.646  52.160  1.00  0.00     0.162 HD
BRANCH  23  25
ATOM     25  C   UNL     1      24.980   2.409  53.587  1.00  0.00     0.150 C 
BRANCH  25  26
ATOM     26  C   UNL     1      26.156   1.479  53.422  1.00  0.00    -0.026 A 
ATOM     27  C   UNL     1      25.968   0.133  53.101  1.00  0.00     0.025 A 
ATOM     28  C   UNL     1      27.465   1.940  53.598  1.00  0.00     0.025 A 
ATOM     29  C   UNL     1      27.082  -0.681  52.962  1.00  0.00     0.111 A 
ATOM     30  C   UNL     1      28.513   1.048  53.436  1.00  0.00     0.111 A 
ATOM     31  N   UNL     1      28.353  -0.253  53.114  1.00  0.00    -0.265 NA
ENDBRANCH  25  26
ENDBRANCH  23  25
ENDBRANCH   6  23
TORSDOF 5
ENDMDL
MODEL 13
REMARK VINA RESULT:    -8.107      5.307      9.028
REMARK INTER + INTRA:         -11.746
REMARK INTER:                  -9.896
REMARK INTRA:                  -1.850
REMARK UNBOUND:                -1.269
REMARK SMILES CC1(C)CNc2cc(NC(=O)c3cccnc3NCc3ccncc3)ccc21
REMARK SMILES IDX 12 1 13 2 14 3 15 4 16 5 17 6 10 7 9 8 11 9 8 11 2 12 4 13
REMARK SMILES IDX 28 14 5 15 27 16 6 17 26 18 7 19 1 20 3 21 18 23 19 25 20 26
REMARK SMILES IDX 21 27 25 28 22 29 24 30 23 31
REMARK H PARENT 9 10 5 22 18 24
ROOT
ATOM      1  C   UNL     1      32.601   4.749  48.000  1.00  0.00     0.082 A 
ATOM      2  C   UNL     1      32.694   3.423  47.555  1.00  0.00     0.019 A 
ATOM      3  C   UNL     1      33.844   3.011  46.896  1.00  0.00     0.021 A 
ATOM      4  C   UNL     1      34.846   3.942  46.703  1.00  0.00     0.113 A 
ATOM      5  N   UNL     1      34.772   5.229  47.113  1.00  0.00    -0.239 NA
ATOM      6  C   UNL     1      33.653   5.644  47.753  1.00  0.00     0.139 A 
ENDROOT
BRANCH   1   7
ATOM      7  C   UNL     1      31.363   5.213  48.668  1.00  0.00     0.259 C 
ATOM      8  N   UNL     1      30.262   5.301  47.836  1.00  0.00    -0.322 N 
ATOM      9  O   UNL     1      31.422   5.476  49.865  1.00  0.00    -0.269 OA
ATOM     10  H   UNL     1      30.378   4.964  46.889  1.00  0.00     0.170 HD
BRANCH   8  11
ATOM     11  C   UNL     1      28.963   5.737  48.176  1.00  0.00     0.043 A 
ATOM     12  C   UNL     1      25.038   7.041  49.240  1.00  0.00     0.009 C 
ATOM     13  C   UNL     1      25.254   8.447  48.606  1.00  0.00     0.124 C 
ATOM     14  C   UNL     1      26.351   6.400  48.884  1.00  0.00    -0.017 A 
ATOM     15  N   UNL     1      26.705   8.693  48.541  1.00  0.00    -0.384 N 
ATOM     16  C   UNL     1      26.735   5.071  48.945  1.00  0.00     0.008 A 
ATOM     17  C   UNL     1      27.245   7.384  48.464  1.00  0.00     0.040 A 
ATOM     18  C   UNL     1      28.045   4.745  48.581  1.00  0.00     0.026 A 
ATOM     19  C   UNL     1      28.555   7.074  48.133  1.00  0.00     0.052 A 
ATOM     20  C   UNL     1      24.878   7.138  50.762  1.00  0.00     0.018 C 
ATOM     21  C   UNL     1      23.833   6.333  48.617  1.00  0.00     0.018 C 
ATOM     22  H   UNL     1      27.016   9.266  47.760  1.00  0.00     0.160 HD
ENDBRANCH   8  11
ENDBRANCH   1   7
BRANCH   6  23
ATOM     23  N   UNL     1      33.591   6.954  48.256  1.00  0.00    -0.365 N 
ATOM     24  H   UNL     1      32.967   6.958  49.067  1.00  0.00     0.162 HD
BRANCH  23  25
ATOM     25  C   UNL     1      33.282   8.015  47.312  1.00  0.00     0.150 C 
BRANCH  25  26
ATOM     26  C   UNL     1      32.079   8.805  47.765  1.00  0.00    -0.026 A 
ATOM     27  C   UNL     1      31.299   9.514  46.849  1.00  0.00     0.025 A 
ATOM     28  C   UNL     1      31.722   8.855  49.116  1.00  0.00     0.025 A 
ATOM     29  C   UNL     1      30.204  10.225  47.315  1.00  0.00     0.111 A 
ATOM     30  C   UNL     1      30.609   9.593  49.484  1.00  0.00     0.111 A 
ATOM     31  N   UNL     1      29.834  10.275  48.612  1.00  0.00    -0.265 NA
ENDBRANCH  25  26
ENDBRANCH  23  25
ENDBRANCH   6  23
TORSDOF 5
ENDMDL
MODEL 14
REMARK VINA RESULT:    -8.095      4.556      8.975
REMARK INTER + INTRA:         -11.730
REMARK INTER:                  -9.884
REMARK INTRA:                  -1.847
REMARK UNBOUND:                -1.269
REMARK SMILES CC1(C)CNc2cc(NC(=O)c3cccnc3NCc3ccncc3)ccc21
REMARK SMILES IDX 12 1 13 2 14 3 15 4 16 5 17 6 10 7 9 8 11 9 8 11 2 12 4 13
REMARK SMILES IDX 28 14 5 15 27 16 6 17 26 18 7 19 1 20 3 21 18 23 19 25 20 26
REMARK SMILES IDX 21 27 25 28 22 29 24 30 23 31
REMARK H PARENT 9 10 5 22 18 24
ROOT
ATOM      1  C   UNL     1      32.517   4.763  47.905  1.00  0.00     0.082 A 
ATOM      2  C   UNL     1      32.633   3.485  47.342  1.00  0.00     0.019 A 
ATOM      3  C   UNL     1      33.810   3.137  46.696  1.00  0.00     0.021 A 
ATOM      4  C   UNL     1      34.817   4.081  46.634  1.00  0.00     0.113 A 
ATOM      5  N   UNL     1      34.722   5.323  47.160  1.00  0.00    -0.239 NA
ATOM      6  C   UNL     1      33.576   5.676  47.789  1.00  0.00     0.139 A 
ENDROOT
BRANCH   1   7
ATOM      7  C   UNL     1      31.250   5.164  48.562  1.00  0.00     0.259 C 
ATOM      8  N   UNL     1      30.176   5.292  47.701  1.00  0.00    -0.322 N 
ATOM      9  O   UNL     1      31.266   5.346  49.775  1.00  0.00    -0.269 OA
ATOM     10  H   UNL     1      30.328   5.023  46.738  1.00  0.00     0.170 HD
BRANCH   8  11
ATOM     11  C   UNL     1      28.859   5.686  48.027  1.00  0.00     0.043 A 
ATOM     12  C   UNL     1      24.872   6.887  48.972  1.00  0.00     0.009 C 
ATOM     13  C   UNL     1      24.645   5.658  49.902  1.00  0.00     0.124 C 
ATOM     14  C   UNL     1      26.306   6.651  48.589  1.00  0.00    -0.017 A 
ATOM     15  N   UNL     1      25.599   4.610  49.503  1.00  0.00    -0.384 N 
ATOM     16  C   UNL     1      27.208   7.494  47.962  1.00  0.00     0.008 A 
ATOM     17  C   UNL     1      26.670   5.352  48.945  1.00  0.00     0.040 A 
ATOM     18  C   UNL     1      28.490   7.006  47.689  1.00  0.00     0.026 A 
ATOM     19  C   UNL     1      27.928   4.850  48.650  1.00  0.00     0.052 A 
ATOM     20  C   UNL     1      23.965   6.823  47.737  1.00  0.00     0.018 C 
ATOM     21  C   UNL     1      24.658   8.199  49.728  1.00  0.00     0.018 C 
ATOM     22  H   UNL     1      25.922   4.005  50.255  1.00  0.00     0.160 HD
ENDBRANCH   8  11
ENDBRANCH   1   7
BRANCH   6  23
ATOM     23  N   UNL     1      33.489   6.934  48.410  1.00  0.00    -0.365 N 
ATOM     24  H   UNL     1      32.794   6.875  49.160  1.00  0.00     0.162 HD
BRANCH  23  25
ATOM     25  C   UNL     1      33.281   8.087  47.551  1.00  0.00     0.150 C 
BRANCH  25  26
ATOM     26  C   UNL     1      32.037   8.840  47.952  1.00  0.00    -0.026 A 
ATOM     27  C   UNL     1      31.362   9.651  47.037  1.00  0.00     0.025 A 
ATOM     28  C   UNL     1      31.534   8.751  49.254  1.00  0.00     0.025 A 
ATOM     29  C   UNL     1      30.224  10.323  47.454  1.00  0.00     0.111 A 
ATOM     30  C   UNL     1      30.388   9.461  49.575  1.00  0.00     0.111 A 
ATOM     31  N   UNL     1      29.714  10.241  48.701  1.00  0.00    -0.265 NA
ENDBRANCH  25  26
ENDBRANCH  23  25
ENDBRANCH   6  23
TORSDOF 5
ENDMDL
MODEL 15
REMARK VINA RESULT:    -8.078      4.772      9.094
REMARK INTER + INTRA:         -11.708
REMARK INTER:                 -10.390
REMARK INTRA:                  -1.318
REMARK UNBOUND:                -1.269
REMARK SMILES CC1(C)CNc2cc(NC(=O)c3cccnc3NCc3ccncc3)ccc21
REMARK SMILES IDX 12 1 13 2 14 3 15 4 16 5 17 6 10 7 9 8 11 9 8 11 2 12 4 13
REMARK SMILES IDX 28 14 5 15 27 16 6 17 26 18 7 19 1 20 3 21 18 23 19 25 20 26
REMARK SMILES IDX 21 27 25 28 22 29 24 30 23 31
REMARK H PARENT 9 10 5 22 18 24
ROOT
ATOM      1  C   UNL     1      30.153  10.462  48.862  1.00  0.00     0.082 A 
ATOM      2  C   UNL     1      30.757  11.670  48.486  1.00  0.00     0.019 A 
ATOM      3  C   UNL     1      29.982  12.818  48.415  1.00  0.00     0.021 A 
ATOM      4  C   UNL     1      28.638  12.710  48.716  1.00  0.00     0.113 A 
ATOM      5  N   UNL     1      28.033  11.554  49.070  1.00  0.00    -0.239 NA
ATOM      6  C   UNL     1      28.778  10.425  49.138  1.00  0.00     0.139 A 
ENDROOT
BRANCH   1   7
ATOM      7  C   UNL     1      30.960   9.219  48.902  1.00  0.00     0.259 C 
ATOM      8  N   UNL     1      31.234   8.676  47.660  1.00  0.00    -0.322 N 
ATOM      9  O   UNL     1      31.299   8.791  50.000  1.00  0.00    -0.269 OA
ATOM     10  H   UNL     1      30.941   9.211  46.853  1.00  0.00     0.170 HD
BRANCH   8  11
ATOM     11  C   UNL     1      31.949   7.490  47.382  1.00  0.00     0.043 A 
ATOM     12  C   UNL     1      34.133   3.911  46.571  1.00  0.00     0.009 C 
ATOM     13  C   UNL     1      32.834   3.086  46.335  1.00  0.00     0.124 C 
ATOM     14  C   UNL     1      33.529   5.267  46.813  1.00  0.00    -0.017 A 
ATOM     15  N   UNL     1      31.730   3.776  47.023  1.00  0.00    -0.384 N 
ATOM     16  C   UNL     1      34.132   6.512  46.860  1.00  0.00     0.008 A 
ATOM     17  C   UNL     1      32.158   5.128  47.031  1.00  0.00     0.040 A 
ATOM     18  C   UNL     1      33.332   7.624  47.139  1.00  0.00     0.026 A 
ATOM     19  C   UNL     1      31.363   6.221  47.340  1.00  0.00     0.052 A 
ATOM     20  C   UNL     1      34.882   3.423  47.817  1.00  0.00     0.018 C 
ATOM     21  C   UNL     1      35.046   3.868  45.345  1.00  0.00     0.018 C 
ATOM     22  H   UNL     1      30.816   3.682  46.586  1.00  0.00     0.160 HD
ENDBRANCH   8  11
ENDBRANCH   1   7
BRANCH   6  23
ATOM     23  N   UNL     1      28.184   9.231  49.580  1.00  0.00    -0.365 N 
ATOM     24  H   UNL     1      28.922   8.535  49.716  1.00  0.00     0.162 HD
BRANCH  23  25
ATOM     25  C   UNL     1      27.070   8.714  48.803  1.00  0.00     0.150 C 
BRANCH  25  26
ATOM     26  C   UNL     1      26.995   7.211  48.904  1.00  0.00    -0.026 A 
ATOM     27  C   UNL     1      28.012   6.405  48.388  1.00  0.00     0.025 A 
ATOM     28  C   UNL     1      25.898   6.587  49.506  1.00  0.00     0.025 A 
ATOM     29  C   UNL     1      27.896   5.028  48.505  1.00  0.00     0.111 A 
ATOM     30  C   UNL     1      25.873   5.203  49.575  1.00  0.00     0.111 A 
ATOM     31  N   UNL     1      26.853   4.406  49.095  1.00  0.00    -0.265 NA
ENDBRANCH  25  26
ENDBRANCH  23  25
ENDBRANCH   6  23
TORSDOF 5
ENDMDL
MODEL 16
REMARK VINA RESULT:    -8.054      2.492      8.257
REMARK INTER + INTRA:         -11.677
REMARK INTER:                 -10.542
REMARK INTRA:                  -1.136
REMARK UNBOUND:                -1.269
REMARK SMILES CC1(C)CNc2cc(NC(=O)c3cccnc3NCc3ccncc3)ccc21
REMARK SMILES IDX 12 1 13 2 14 3 15 4 16 5 17 6 10 7 9 8 11 9 8 11 2 12 4 13
REMARK SMILES IDX 28 14 5 15 27 16 6 17 26 18 7 19 1 20 3 21 18 23 19 25 20 26
REMARK SMILES IDX 21 27 25 28 22 29 24 30 23 31
REMARK H PARENT 9 10 5 22 18 24
ROOT
ATOM      1  C   UNL     1      25.971   5.455  49.685  1.00  0.00     0.082 A 
ATOM      2  C   UNL     1      26.978   5.171  48.753  1.00  0.00     0.019 A 
ATOM      3  C   UNL     1      27.793   6.201  48.305  1.00  0.00     0.021 A 
ATOM      4  C   UNL     1      27.562   7.470  48.801  1.00  0.00     0.113 A 
ATOM      5  N   UNL     1      26.590   7.768  49.692  1.00  0.00    -0.239 NA
ATOM      6  C   UNL     1      25.785   6.772  50.133  1.00  0.00     0.139 A 
ENDROOT
BRANCH   1   7
ATOM      7  C   UNL     1      25.066   4.374  50.141  1.00  0.00     0.259 C 
ATOM      8  N   UNL     1      25.431   3.791  51.341  1.00  0.00    -0.322 N 
ATOM      9  O   UNL     1      24.104   4.095  49.434  1.00  0.00    -0.269 OA
ATOM     10  H   UNL     1      26.214   4.205  51.830  1.00  0.00     0.170 HD
BRANCH   8  11
ATOM     11  C   UNL     1      24.788   2.725  52.007  1.00  0.00     0.043 A 
ATOM     12  C   UNL     1      22.821  -0.507  53.989  1.00  0.00     0.009 C 
ATOM     13  C   UNL     1      24.141  -0.997  54.654  1.00  0.00     0.124 C 
ATOM     14  C   UNL     1      23.337   0.714  53.277  1.00  0.00    -0.017 A 
ATOM     15  N   UNL     1      25.266  -0.491  53.850  1.00  0.00    -0.384 N 
ATOM     16  C   UNL     1      22.643   1.752  52.678  1.00  0.00     0.008 A 
ATOM     17  C   UNL     1      24.731   0.681  53.259  1.00  0.00     0.040 A 
ATOM     18  C   UNL     1      23.377   2.761  52.049  1.00  0.00     0.026 A 
ATOM     19  C   UNL     1      25.466   1.661  52.610  1.00  0.00     0.052 A 
ATOM     20  C   UNL     1      22.292  -1.536  52.983  1.00  0.00     0.018 C 
ATOM     21  C   UNL     1      21.758  -0.187  55.040  1.00  0.00     0.018 C 
ATOM     22  H   UNL     1      26.117  -0.287  54.369  1.00  0.00     0.160 HD
ENDBRANCH   8  11
ENDBRANCH   1   7
BRANCH   6  23
ATOM     23  N   UNL     1      24.821   7.048  51.117  1.00  0.00    -0.365 N 
ATOM     24  H   UNL     1      24.542   6.165  51.552  1.00  0.00     0.162 HD
BRANCH  23  25
ATOM     25  C   UNL     1      23.679   7.857  50.723  1.00  0.00     0.150 C 
BRANCH  25  26
ATOM     26  C   UNL     1      22.532   6.986  50.274  1.00  0.00    -0.026 A 
ATOM     27  C   UNL     1      22.087   7.009  48.951  1.00  0.00     0.025 A 
ATOM     28  C   UNL     1      21.879   6.140  51.177  1.00  0.00     0.025 A 
ATOM     29  C   UNL     1      21.028   6.190  48.589  1.00  0.00     0.111 A 
ATOM     30  C   UNL     1      20.830   5.359  50.718  1.00  0.00     0.111 A 
ATOM     31  N   UNL     1      20.393   5.357  49.440  1.00  0.00    -0.265 NA
ENDBRANCH  25  26
ENDBRANCH  23  25
ENDBRANCH   6  23
TORSDOF 5
ENDMDL
MODEL 17
REMARK VINA RESULT:    -8.038      2.260      8.219
REMARK INTER + INTRA:         -11.657
REMARK INTER:                 -10.784
REMARK INTRA:                  -0.874
REMARK UNBOUND:                -1.269
REMARK SMILES CC1(C)CNc2cc(NC(=O)c3cccnc3NCc3ccncc3)ccc21
REMARK SMILES IDX 12 1 13 2 14 3 15 4 16 5 17 6 10 7 9 8 11 9 8 11 2 12 4 13
REMARK SMILES IDX 28 14 5 15 27 16 6 17 26 18 7 19 1 20 3 21 18 23 19 25 20 26
REMARK SMILES IDX 21 27 25 28 22 29 24 30 23 31
REMARK H PARENT 9 10 5 22 18 24
ROOT
ATOM      1  C   UNL     1      26.031   5.848  48.777  1.00  0.00     0.082 A 
ATOM      2  C   UNL     1      24.677   6.046  48.472  1.00  0.00     0.019 A 
ATOM      3  C   UNL     1      24.273   7.269  47.957  1.00  0.00     0.021 A 
ATOM      4  C   UNL     1      25.236   8.243  47.775  1.00  0.00     0.113 A 
ATOM      5  N   UNL     1      26.545   8.078  48.073  1.00  0.00    -0.239 NA
ATOM      6  C   UNL     1      26.950   6.890  48.581  1.00  0.00     0.139 A 
ENDROOT
BRANCH   1   7
ATOM      7  C   UNL     1      26.470   4.561  49.367  1.00  0.00     0.259 C 
ATOM      8  N   UNL     1      25.711   4.137  50.443  1.00  0.00    -0.322 N 
ATOM      9  O   UNL     1      27.441   4.004  48.867  1.00  0.00    -0.269 OA
ATOM     10  H   UNL     1      24.892   4.687  50.669  1.00  0.00     0.170 HD
BRANCH   8  11
ATOM     11  C   UNL     1      25.904   2.976  51.222  1.00  0.00     0.043 A 
ATOM     12  C   UNL     1      26.475  -0.559  53.550  1.00  0.00     0.009 C 
ATOM     13  C   UNL     1      27.815  -0.037  54.146  1.00  0.00     0.124 C 
ATOM     14  C   UNL     1      26.084   0.636  52.724  1.00  0.00    -0.017 A 
ATOM     15  N   UNL     1      28.348   0.985  53.229  1.00  0.00    -0.384 N 
ATOM     16  C   UNL     1      24.879   0.937  52.113  1.00  0.00     0.008 A 
ATOM     17  C   UNL     1      27.180   1.491  52.605  1.00  0.00     0.040 A 
ATOM     18  C   UNL     1      24.794   2.116  51.367  1.00  0.00     0.026 A 
ATOM     19  C   UNL     1      27.114   2.645  51.841  1.00  0.00     0.052 A 
ATOM     20  C   UNL     1      26.704  -1.783  52.654  1.00  0.00     0.018 C 
ATOM     21  C   UNL     1      25.468  -0.883  54.654  1.00  0.00     0.018 C 
ATOM     22  H   UNL     1      28.883   1.729  53.669  1.00  0.00     0.160 HD
ENDBRANCH   8  11
ENDBRANCH   1   7
BRANCH   6  23
ATOM     23  N   UNL     1      28.317   6.673  48.822  1.00  0.00    -0.365 N 
ATOM     24  H   UNL     1      28.570   7.148  49.693  1.00  0.00     0.162 HD
BRANCH  23  25
ATOM     25  C   UNL     1      29.240   6.971  47.740  1.00  0.00     0.150 C 
BRANCH  25  26
ATOM     26  C   UNL     1      29.873   8.327  47.931  1.00  0.00    -0.026 A 
ATOM     27  C   UNL     1      30.283   9.089  46.835  1.00  0.00     0.025 A 
ATOM     28  C   UNL     1      30.074   8.850  49.212  1.00  0.00     0.025 A 
ATOM     29  C   UNL     1      30.861  10.329  47.063  1.00  0.00     0.111 A 
ATOM     30  C   UNL     1      30.659  10.100  49.338  1.00  0.00     0.111 A 
ATOM     31  N   UNL     1      31.051  10.858  48.290  1.00  0.00    -0.265 NA
ENDBRANCH  25  26
ENDBRANCH  23  25
ENDBRANCH   6  23
TORSDOF 5
ENDMDL
MODEL 18
REMARK VINA RESULT:    -7.924      2.280      7.102
REMARK INTER + INTRA:         -11.509
REMARK INTER:                 -10.138
REMARK INTRA:                  -1.371
REMARK UNBOUND:                -1.269
REMARK SMILES CC1(C)CNc2cc(NC(=O)c3cccnc3NCc3ccncc3)ccc21
REMARK SMILES IDX 12 1 13 2 14 3 15 4 16 5 17 6 10 7 9 8 11 9 8 11 2 12 4 13
REMARK SMILES IDX 28 14 5 15 27 16 6 17 26 18 7 19 1 20 3 21 18 23 19 25 20 26
REMARK SMILES IDX 21 27 25 28 22 29 24 30 23 31
REMARK H PARENT 9 10 5 22 18 24
ROOT
ATOM      1  C   UNL     1      22.755   6.473  50.684  1.00  0.00     0.082 A 
ATOM      2  C   UNL     1      21.356   6.407  50.639  1.00  0.00     0.019 A 
ATOM      3  C   UNL     1      20.660   7.345  49.889  1.00  0.00     0.021 A 
ATOM      4  C   UNL     1      21.390   8.311  49.223  1.00  0.00     0.113 A 
ATOM      5  N   UNL     1      22.739   8.400  49.262  1.00  0.00    -0.239 NA
ATOM      6  C   UNL     1      23.429   7.493  49.995  1.00  0.00     0.139 A 
ENDROOT
BRANCH   1   7
ATOM      7  C   UNL     1      23.509   5.504  51.513  1.00  0.00     0.259 C 
ATOM      8  N   UNL     1      23.584   4.231  50.979  1.00  0.00    -0.322 N 
ATOM      9  O   UNL     1      23.982   5.902  52.572  1.00  0.00    -0.269 OA
ATOM     10  H   UNL     1      23.202   4.102  50.051  1.00  0.00     0.170 HD
BRANCH   8  11
ATOM     11  C   UNL     1      24.205   3.097  51.548  1.00  0.00     0.043 A 
ATOM     12  C   UNL     1      26.109  -0.308  53.286  1.00  0.00     0.009 C 
ATOM     13  C   UNL     1      24.754  -0.920  53.749  1.00  0.00     0.124 C 
ATOM     14  C   UNL     1      25.601   0.912  52.568  1.00  0.00    -0.017 A 
ATOM     15  N   UNL     1      23.772   0.175  53.838  1.00  0.00    -0.384 N 
ATOM     16  C   UNL     1      26.264   1.782  51.718  1.00  0.00     0.008 A 
ATOM     17  C   UNL     1      24.261   1.115  52.896  1.00  0.00     0.040 A 
ATOM     18  C   UNL     1      25.555   2.872  51.205  1.00  0.00     0.026 A 
ATOM     19  C   UNL     1      23.560   2.211  52.417  1.00  0.00     0.052 A 
ATOM     20  C   UNL     1      26.976   0.093  54.486  1.00  0.00     0.018 C 
ATOM     21  C   UNL     1      26.868  -1.272  52.374  1.00  0.00     0.018 C 
ATOM     22  H   UNL     1      22.810  -0.085  53.634  1.00  0.00     0.160 HD
ENDBRANCH   8  11
ENDBRANCH   1   7
BRANCH   6  23
ATOM     23  N   UNL     1      24.834   7.521  49.983  1.00  0.00    -0.365 N 
ATOM     24  H   UNL     1      25.147   8.213  50.670  1.00  0.00     0.162 HD
BRANCH  23  25
ATOM     25  C   UNL     1      25.486   7.685  48.695  1.00  0.00     0.150 C 
BRANCH  25  26
ATOM     26  C   UNL     1      26.666   6.754  48.566  1.00  0.00    -0.026 A 
ATOM     27  C   UNL     1      26.542   5.393  48.854  1.00  0.00     0.025 A 
ATOM     28  C   UNL     1      27.917   7.234  48.166  1.00  0.00     0.025 A 
ATOM     29  C   UNL     1      27.657   4.579  48.722  1.00  0.00     0.111 A 
ATOM     30  C   UNL     1      28.971   6.341  48.062  1.00  0.00     0.111 A 
ATOM     31  N   UNL     1      28.869   5.020  48.323  1.00  0.00    -0.265 NA
ENDBRANCH  25  26
ENDBRANCH  23  25
ENDBRANCH   6  23
TORSDOF 5
ENDMDL
MODEL 19
REMARK VINA RESULT:    -7.914      2.326      4.451
REMARK INTER + INTRA:         -11.496
REMARK INTER:                  -9.793
REMARK INTRA:                  -1.704
REMARK UNBOUND:                -1.269
REMARK SMILES CC1(C)CNc2cc(NC(=O)c3cccnc3NCc3ccncc3)ccc21
REMARK SMILES IDX 12 1 13 2 14 3 15 4 16 5 17 6 10 7 9 8 11 9 8 11 2 12 4 13
REMARK SMILES IDX 28 14 5 15 27 16 6 17 26 18 7 19 1 20 3 21 18 23 19 25 20 26
REMARK SMILES IDX 21 27 25 28 22 29 24 30 23 31
REMARK H PARENT 9 10 5 22 18 24
ROOT
ATOM      1  C   UNL     1      23.312   1.629  52.546  1.00  0.00     0.082 A 
ATOM      2  C   UNL     1      24.139   0.544  52.869  1.00  0.00     0.019 A 
ATOM      3  C   UNL     1      23.560  -0.647  53.282  1.00  0.00     0.021 A 
ATOM      4  C   UNL     1      22.182  -0.701  53.364  1.00  0.00     0.113 A 
ATOM      5  N   UNL     1      21.365   0.336  53.069  1.00  0.00    -0.239 NA
ATOM      6  C   UNL     1      21.919   1.505  52.668  1.00  0.00     0.139 A 
ENDROOT
BRANCH   1   7
ATOM      7  C   UNL     1      23.917   2.920  52.142  1.00  0.00     0.259 C 
ATOM      8  N   UNL     1      24.380   2.952  50.840  1.00  0.00    -0.322 N 
ATOM      9  O   UNL     1      23.959   3.819  52.976  1.00  0.00    -0.269 OA
ATOM     10  H   UNL     1      24.189   2.140  50.267  1.00  0.00     0.170 HD
BRANCH   8  11
ATOM     11  C   UNL     1      25.027   4.023  50.186  1.00  0.00     0.043 A 
ATOM     12  C   UNL     1      26.972   7.287  48.237  1.00  0.00     0.009 C 
ATOM     13  C   UNL     1      28.212   6.422  47.867  1.00  0.00     0.124 C 
ATOM     14  C   UNL     1      26.121   6.238  48.897  1.00  0.00    -0.017 A 
ATOM     15  N   UNL     1      28.261   5.283  48.799  1.00  0.00    -0.384 N 
ATOM     16  C   UNL     1      24.783   6.275  49.254  1.00  0.00     0.008 A 
ATOM     17  C   UNL     1      26.901   5.113  49.162  1.00  0.00     0.040 A 
ATOM     18  C   UNL     1      24.239   5.158  49.894  1.00  0.00     0.026 A 
ATOM     19  C   UNL     1      26.377   4.013  49.825  1.00  0.00     0.052 A 
ATOM     20  C   UNL     1      27.342   8.390  49.236  1.00  0.00     0.018 C 
ATOM     21  C   UNL     1      26.326   7.889  46.988  1.00  0.00     0.018 C 
ATOM     22  H   UNL     1      28.651   4.424  48.419  1.00  0.00     0.160 HD
ENDBRANCH   8  11
ENDBRANCH   1   7
BRANCH   6  23
ATOM     23  N   UNL     1      21.085   2.568  52.281  1.00  0.00    -0.365 N 
ATOM     24  H   UNL     1      20.615   2.928  53.117  1.00  0.00     0.162 HD
BRANCH  23  25
ATOM     25  C   UNL     1      20.161   2.324  51.187  1.00  0.00     0.150 C 
BRANCH  25  26
ATOM     26  C   UNL     1      20.843   2.510  49.855  1.00  0.00    -0.026 A 
ATOM     27  C   UNL     1      21.490   1.445  49.224  1.00  0.00     0.025 A 
ATOM     28  C   UNL     1      20.853   3.758  49.223  1.00  0.00     0.025 A 
ATOM     29  C   UNL     1      22.103   1.667  48.001  1.00  0.00     0.111 A 
ATOM     30  C   UNL     1      21.493   3.880  48.000  1.00  0.00     0.111 A 
ATOM     31  N   UNL     1      22.113   2.860  47.367  1.00  0.00    -0.265 NA
ENDBRANCH  25  26
ENDBRANCH  23  25
ENDBRANCH   6  23
TORSDOF 5
ENDMDL
MODEL 20
REMARK VINA RESULT:    -7.849      2.256      5.100
REMARK INTER + INTRA:         -11.413
REMARK INTER:                  -9.969
REMARK INTRA:                  -1.444
REMARK UNBOUND:                -1.269
REMARK SMILES CC1(C)CNc2cc(NC(=O)c3cccnc3NCc3ccncc3)ccc21
REMARK SMILES IDX 12 1 13 2 14 3 15 4 16 5 17 6 10 7 9 8 11 9 8 11 2 12 4 13
REMARK SMILES IDX 28 14 5 15 27 16 6 17 26 18 7 19 1 20 3 21 18 23 19 25 20 26
REMARK SMILES IDX 21 27 25 28 22 29 24 30 23 31
REMARK H PARENT 9 10 5 22 18 24
ROOT
ATOM      1  C   UNL     1      25.288   1.284  52.176  1.00  0.00     0.082 A 
ATOM      2  C   UNL     1      26.607   0.879  51.925  1.00  0.00     0.019 A 
ATOM      3  C   UNL     1      27.050  -0.331  52.437  1.00  0.00     0.021 A 
ATOM      4  C   UNL     1      26.162  -1.082  53.183  1.00  0.00     0.113 A 
ATOM      5  N   UNL     1      24.890  -0.706  53.447  1.00  0.00    -0.239 NA
ATOM      6  C   UNL     1      24.447   0.476  52.957  1.00  0.00     0.139 A 
ENDROOT
BRANCH   1   7
ATOM      7  C   UNL     1      24.813   2.593  51.670  1.00  0.00     0.259 C 
ATOM      8  N   UNL     1      24.944   2.760  50.304  1.00  0.00    -0.322 N 
ATOM      9  O   UNL     1      24.363   3.392  52.484  1.00  0.00    -0.269 OA
ATOM     10  H   UNL     1      25.264   1.960  49.775  1.00  0.00     0.170 HD
BRANCH   8  11
ATOM     11  C   UNL     1      24.610   3.902  49.544  1.00  0.00     0.043 A 
ATOM     12  C   UNL     1      23.567   7.363  47.269  1.00  0.00     0.009 C 
ATOM     13  C   UNL     1      25.042   7.857  47.208  1.00  0.00     0.124 C 
ATOM     14  C   UNL     1      23.765   6.068  48.007  1.00  0.00    -0.017 A 
ATOM     15  N   UNL     1      25.769   7.242  48.331  1.00  0.00    -0.384 N 
ATOM     16  C   UNL     1      22.891   5.010  48.196  1.00  0.00     0.008 A 
ATOM     17  C   UNL     1      25.045   6.045  48.561  1.00  0.00     0.040 A 
ATOM     18  C   UNL     1      23.324   3.924  48.962  1.00  0.00     0.026 A 
ATOM     19  C   UNL     1      25.471   4.987  49.348  1.00  0.00     0.052 A 
ATOM     20  C   UNL     1      22.693   8.322  48.086  1.00  0.00     0.018 C 
ATOM     21  C   UNL     1      22.988   7.174  45.866  1.00  0.00     0.018 C 
ATOM     22  H   UNL     1      26.754   7.050  48.161  1.00  0.00     0.160 HD
ENDBRANCH   8  11
ENDBRANCH   1   7
BRANCH   6  23
ATOM     23  N   UNL     1      23.106   0.846  53.154  1.00  0.00    -0.365 N 
ATOM     24  H   UNL     1      23.018   1.250  54.091  1.00  0.00     0.162 HD
BRANCH  23  25
ATOM     25  C   UNL     1      22.092  -0.160  52.886  1.00  0.00     0.150 C 
BRANCH  25  26
ATOM     26  C   UNL     1      21.161   0.294  51.790  1.00  0.00    -0.026 A 
ATOM     27  C   UNL     1      21.659   0.818  50.595  1.00  0.00     0.025 A 
ATOM     28  C   UNL     1      19.773   0.210  51.947  1.00  0.00     0.025 A 
ATOM     29  C   UNL     1      20.761   1.221  49.618  1.00  0.00     0.111 A 
ATOM     30  C   UNL     1      18.958   0.638  50.912  1.00  0.00     0.111 A 
ATOM     31  N   UNL     1      19.420   1.136  49.744  1.00  0.00    -0.265 NA
ENDBRANCH  25  26
ENDBRANCH  23  25
ENDBRANCH   6  23
TORSDOF 5
ENDMDL
