MODEL 1
REMARK VINA RESULT:    -9.073      0.000      0.000
REMARK INTER + INTRA:         -15.896
REMARK INTER:                 -14.377
REMARK INTRA:                  -1.519
REMARK UNBOUND:                -1.519
REMARK SMILES C=CC(=O)Nc1cc(Nc2nccc(-c3cn(C)c4ccccc34)n2)c(OC)cc1N(C)CCN(C)C
REMARK SMILES IDX 6 1 7 2 8 3 26 4 29 5 30 6 5 7 3 8 4 9 2 11 1 12 31 13 32 14
REMARK SMILES IDX 33 15 34 16 35 17 36 18 37 19 9 20 10 22 11 23 25 24 12 25
REMARK SMILES IDX 14 26 13 27 15 28 16 29 24 30 17 31 23 32 19 33 22 34 20 35
REMARK SMILES IDX 21 36 18 37 27 38 28 39
REMARK H PARENT 5 10 9 21
ROOT
ATOM      1  C   UNL     1      28.902   6.051  48.179  1.00  0.00     0.067 A 
ATOM      2  C   UNL     1      28.148   4.908  48.519  1.00  0.00     0.058 A 
ATOM      3  C   UNL     1      26.823   5.007  48.945  1.00  0.00     0.086 A 
ATOM      4  C   UNL     1      26.280   6.294  49.069  1.00  0.00     0.144 A 
ATOM      5  C   UNL     1      27.009   7.441  48.758  1.00  0.00     0.076 A 
ATOM      6  C   UNL     1      28.349   7.346  48.344  1.00  0.00     0.064 A 
ENDROOT
BRANCH   1   7
ATOM      7  N   UNL     1      30.222   5.801  47.727  1.00  0.00    -0.321 N 
ATOM      8  C   UNL     1      31.326   5.517  48.511  1.00  0.00     0.247 C 
ATOM      9  O   UNL     1      31.441   5.593  49.728  1.00  0.00    -0.270 OA
ATOM     10  H   UNL     1      30.405   6.063  46.766  1.00  0.00     0.170 HD
BRANCH   8  11
ATOM     11  C   UNL     1      32.503   5.159  47.658  1.00  0.00     0.064 C 
ATOM     12  C   UNL     1      32.474   4.089  46.854  1.00  0.00     0.014 C 
ENDBRANCH   8  11
ENDBRANCH   1   7
BRANCH   6  13
ATOM     13  N   UNL     1      29.163   8.501  48.259  1.00  0.00    -0.372 N 
ATOM     14  C   UNL     1      29.308   9.065  46.909  1.00  0.00     0.143 C 
BRANCH  13  15
ATOM     15  C   UNL     1      28.844   9.465  49.334  1.00  0.00     0.131 C 
BRANCH  15  16
ATOM     16  C   UNL     1      29.027  10.923  48.856  1.00  0.00     0.105 C 
BRANCH  16  17
ATOM     17  N   UNL     1      27.842  11.782  49.098  1.00  0.00    -0.308 NA
ATOM     18  C   UNL     1      26.694  11.268  48.334  1.00  0.00     0.105 C 
ATOM     19  C   UNL     1      28.102  13.175  48.712  1.00  0.00     0.105 C 
ENDBRANCH  16  17
ENDBRANCH  15  16
ENDBRANCH  13  15
ENDBRANCH   6  13
BRANCH   3  20
ATOM     20  N   UNL     1      26.041   3.891  49.274  1.00  0.00    -0.321 N 
ATOM     21  H   UNL     1      25.122   3.885  48.852  1.00  0.00     0.170 HD
BRANCH  20  22
ATOM     22  C   UNL     1      26.023   3.102  50.425  1.00  0.00     0.227 A 
ATOM     23  N   UNL     1      27.151   2.780  51.079  1.00  0.00    -0.221 NA
ATOM     24  N   UNL     1      24.797   2.757  50.845  1.00  0.00    -0.213 NA
ATOM     25  C   UNL     1      27.015   2.063  52.211  1.00  0.00     0.117 A 
ATOM     26  C   UNL     1      24.694   2.031  51.983  1.00  0.00     0.078 A 
ATOM     27  C   UNL     1      25.801   1.652  52.706  1.00  0.00     0.049 A 
BRANCH  26  28
ATOM     28  C   UNL     1      23.328   1.684  52.379  1.00  0.00     0.026 A 
ATOM     29  C   UNL     1      22.252   2.467  51.995  1.00  0.00     0.096 A 
ATOM     30  C   UNL     1      22.785   0.613  53.177  1.00  0.00     0.009 A 
ATOM     31  N   UNL     1      21.106   1.909  52.476  1.00  0.00    -0.350 N 
ATOM     32  C   UNL     1      23.325  -0.480  53.900  1.00  0.00     0.011 A 
ATOM     33  C   UNL     1      21.390   0.772  53.197  1.00  0.00     0.048 A 
ATOM     34  C   UNL     1      22.479  -1.377  54.568  1.00  0.00     0.001 A 
ATOM     35  C   UNL     1      20.533  -0.118  53.868  1.00  0.00     0.027 A 
ATOM     36  C   UNL     1      21.101  -1.201  54.544  1.00  0.00     0.002 A 
ATOM     37  C   UNL     1      19.783   2.462  52.279  1.00  0.00     0.149 C 
ENDBRANCH  26  28
ENDBRANCH  20  22
ENDBRANCH   3  20
BRANCH   4  38
ATOM     38  O   UNL     1      24.991   6.426  49.523  1.00  0.00    -0.494 OA
ATOM     39  C   UNL     1      24.969   7.208  50.725  1.00  0.00     0.278 C 
ENDBRANCH   4  38
TORSDOF 10
ENDMDL
MODEL 2
REMARK VINA RESULT:    -8.800      2.010      3.694
REMARK INTER + INTRA:         -15.463
REMARK INTER:                 -13.754
REMARK INTRA:                  -1.709
REMARK UNBOUND:                -1.519
REMARK SMILES C=CC(=O)Nc1cc(Nc2nccc(-c3cn(C)c4ccccc34)n2)c(OC)cc1N(C)CCN(C)C
REMARK SMILES IDX 6 1 7 2 8 3 26 4 29 5 30 6 5 7 3 8 4 9 2 11 1 12 31 13 32 14
REMARK SMILES IDX 33 15 34 16 35 17 36 18 37 19 9 20 10 22 11 23 25 24 12 25
REMARK SMILES IDX 14 26 13 27 15 28 16 29 24 30 17 31 23 32 19 33 22 34 20 35
REMARK SMILES IDX 21 36 18 37 27 38 28 39
REMARK H PARENT 5 10 9 21
ROOT
ATOM      1  C   UNL     1      28.632   6.020  48.196  1.00  0.00     0.067 A 
ATOM      2  C   UNL     1      27.704   4.999  48.493  1.00  0.00     0.058 A 
ATOM      3  C   UNL     1      26.408   5.291  48.919  1.00  0.00     0.086 A 
ATOM      4  C   UNL     1      26.074   6.643  49.087  1.00  0.00     0.144 A 
ATOM      5  C   UNL     1      26.977   7.671  48.819  1.00  0.00     0.076 A 
ATOM      6  C   UNL     1      28.289   7.380  48.405  1.00  0.00     0.064 A 
ENDROOT
BRANCH   1   7
ATOM      7  N   UNL     1      29.899   5.581  47.739  1.00  0.00    -0.321 N 
ATOM      8  C   UNL     1      31.039   5.403  48.503  1.00  0.00     0.247 C 
ATOM      9  O   UNL     1      31.246   5.742  49.661  1.00  0.00    -0.270 OA
ATOM     10  H   UNL     1      30.027   5.605  46.735  1.00  0.00     0.170 HD
BRANCH   8  11
ATOM     11  C   UNL     1      32.129   4.777  47.689  1.00  0.00     0.064 C 
ATOM     12  C   UNL     1      31.888   3.719  46.907  1.00  0.00     0.014 C 
ENDBRANCH   8  11
ENDBRANCH   1   7
BRANCH   6  13
ATOM     13  N   UNL     1      29.275   8.394  48.363  1.00  0.00    -0.372 N 
ATOM     14  C   UNL     1      29.592   8.902  47.020  1.00  0.00     0.143 C 
BRANCH  13  15
ATOM     15  C   UNL     1      29.041   9.417  49.405  1.00  0.00     0.131 C 
BRANCH  15  16
ATOM     16  C   UNL     1      29.198  10.846  48.838  1.00  0.00     0.105 C 
BRANCH  16  17
ATOM     17  N   UNL     1      28.035  11.726  49.110  1.00  0.00    -0.308 NA
ATOM     18  C   UNL     1      26.900  11.321  48.267  1.00  0.00     0.105 C 
ATOM     19  C   UNL     1      28.358  13.135  48.853  1.00  0.00     0.105 C 
ENDBRANCH  16  17
ENDBRANCH  15  16
ENDBRANCH  13  15
ENDBRANCH   6  13
BRANCH   3  20
ATOM     20  N   UNL     1      25.457   4.303  49.207  1.00  0.00    -0.321 N 
ATOM     21  H   UNL     1      24.659   4.295  48.585  1.00  0.00     0.170 HD
BRANCH  20  22
ATOM     22  C   UNL     1      25.100   3.711  50.419  1.00  0.00     0.227 A 
ATOM     23  N   UNL     1      23.849   3.792  50.903  1.00  0.00    -0.221 NA
ATOM     24  N   UNL     1      26.081   3.014  51.010  1.00  0.00    -0.213 NA
ATOM     25  C   UNL     1      23.597   3.135  52.052  1.00  0.00     0.117 A 
ATOM     26  C   UNL     1      25.798   2.370  52.166  1.00  0.00     0.078 A 
ATOM     27  C   UNL     1      24.546   2.412  52.734  1.00  0.00     0.049 A 
BRANCH  26  28
ATOM     28  C   UNL     1      26.916   1.635  52.760  1.00  0.00     0.026 A 
ATOM     29  C   UNL     1      27.915   2.294  53.455  1.00  0.00     0.096 A 
ATOM     30  C   UNL     1      27.268   0.236  52.774  1.00  0.00     0.009 A 
ATOM     31  N   UNL     1      28.812   1.377  53.915  1.00  0.00    -0.350 N 
ATOM     32  C   UNL     1      26.719  -0.948  52.221  1.00  0.00     0.011 A 
ATOM     33  C   UNL     1      28.447   0.110  53.526  1.00  0.00     0.048 A 
ATOM     34  C   UNL     1      27.322  -2.190  52.461  1.00  0.00     0.001 A 
ATOM     35  C   UNL     1      29.065  -1.131  53.768  1.00  0.00     0.027 A 
ATOM     36  C   UNL     1      28.476  -2.279  53.232  1.00  0.00     0.002 A 
ATOM     37  C   UNL     1      29.998   1.705  54.678  1.00  0.00     0.149 C 
ENDBRANCH  26  28
ENDBRANCH  20  22
ENDBRANCH   3  20
BRANCH   4  38
ATOM     38  O   UNL     1      24.818   6.961  49.543  1.00  0.00    -0.494 OA
ATOM     39  C   UNL     1      24.084   7.653  48.524  1.00  0.00     0.278 C 
ENDBRANCH   4  38
TORSDOF 10
ENDMDL
MODEL 3
REMARK VINA RESULT:    -8.747      2.253      9.824
REMARK INTER + INTRA:         -15.380
REMARK INTER:                 -14.125
REMARK INTRA:                  -1.255
REMARK UNBOUND:                -1.519
REMARK SMILES C=CC(=O)Nc1cc(Nc2nccc(-c3cn(C)c4ccccc34)n2)c(OC)cc1N(C)CCN(C)C
REMARK SMILES IDX 6 1 7 2 8 3 26 4 29 5 30 6 5 7 3 8 4 9 2 11 1 12 31 13 32 14
REMARK SMILES IDX 33 15 34 16 35 17 36 18 37 19 9 20 10 22 11 23 25 24 12 25
REMARK SMILES IDX 14 26 13 27 15 28 16 29 24 30 17 31 23 32 19 33 22 34 20 35
REMARK SMILES IDX 21 36 18 37 27 38 28 39
REMARK H PARENT 5 10 9 21
ROOT
ATOM      1  C   UNL     1      26.376   1.215  52.199  1.00  0.00     0.067 A 
ATOM      2  C   UNL     1      26.410   2.176  51.166  1.00  0.00     0.058 A 
ATOM      3  C   UNL     1      25.246   2.776  50.688  1.00  0.00     0.086 A 
ATOM      4  C   UNL     1      24.028   2.354  51.242  1.00  0.00     0.144 A 
ATOM      5  C   UNL     1      23.964   1.392  52.249  1.00  0.00     0.076 A 
ATOM      6  C   UNL     1      25.134   0.773  52.722  1.00  0.00     0.064 A 
ENDROOT
BRANCH   1   7
ATOM      7  N   UNL     1      27.636   0.714  52.611  1.00  0.00    -0.321 N 
ATOM      8  C   UNL     1      28.516   1.312  53.495  1.00  0.00     0.247 C 
ATOM      9  O   UNL     1      28.484   2.445  53.960  1.00  0.00    -0.270 OA
ATOM     10  H   UNL     1      28.006  -0.040  52.046  1.00  0.00     0.170 HD
BRANCH   8  11
ATOM     11  C   UNL     1      29.665   0.400  53.798  1.00  0.00     0.064 C 
ATOM     12  C   UNL     1      29.580  -0.916  53.574  1.00  0.00     0.014 C 
ENDBRANCH   8  11
ENDBRANCH   1   7
BRANCH   6  13
ATOM     13  N   UNL     1      25.062  -0.362  53.564  1.00  0.00    -0.372 N 
ATOM     14  C   UNL     1      25.709  -0.211  54.875  1.00  0.00     0.143 C 
BRANCH  13  15
ATOM     15  C   UNL     1      23.700  -0.939  53.575  1.00  0.00     0.131 C 
BRANCH  15  16
ATOM     16  C   UNL     1      23.141  -1.038  55.012  1.00  0.00     0.105 C 
BRANCH  16  17
ATOM     17  N   UNL     1      21.659  -1.050  55.076  1.00  0.00    -0.308 NA
ATOM     18  C   UNL     1      21.134  -2.092  54.181  1.00  0.00     0.105 C 
ATOM     19  C   UNL     1      21.097   0.252  54.696  1.00  0.00     0.105 C 
ENDBRANCH  16  17
ENDBRANCH  15  16
ENDBRANCH  13  15
ENDBRANCH   6  13
BRANCH   3  20
ATOM     20  N   UNL     1      25.246   3.745  49.675  1.00  0.00    -0.321 N 
ATOM     21  H   UNL     1      25.537   3.403  48.769  1.00  0.00     0.170 HD
BRANCH  20  22
ATOM     22  C   UNL     1      25.458   5.123  49.736  1.00  0.00     0.227 A 
ATOM     23  N   UNL     1      24.724   5.917  50.534  1.00  0.00    -0.221 NA
ATOM     24  N   UNL     1      26.482   5.563  48.990  1.00  0.00    -0.213 NA
ATOM     25  C   UNL     1      25.051   7.223  50.560  1.00  0.00     0.117 A 
ATOM     26  C   UNL     1      26.781   6.882  49.034  1.00  0.00     0.078 A 
ATOM     27  C   UNL     1      26.072   7.763  49.816  1.00  0.00     0.049 A 
BRANCH  26  28
ATOM     28  C   UNL     1      27.905   7.293  48.190  1.00  0.00     0.026 A 
ATOM     29  C   UNL     1      27.882   8.497  47.506  1.00  0.00     0.096 A 
ATOM     30  C   UNL     1      29.157   6.660  47.855  1.00  0.00     0.009 A 
ATOM     31  N   UNL     1      29.052   8.638  46.822  1.00  0.00    -0.350 N 
ATOM     32  C   UNL     1      29.777   5.423  48.163  1.00  0.00     0.011 A 
ATOM     33  C   UNL     1      29.858   7.541  47.015  1.00  0.00     0.048 A 
ATOM     34  C   UNL     1      31.057   5.129  47.673  1.00  0.00     0.001 A 
ATOM     35  C   UNL     1      31.140   7.253  46.513  1.00  0.00     0.027 A 
ATOM     36  C   UNL     1      31.731   6.036  46.864  1.00  0.00     0.002 A 
ATOM     37  C   UNL     1      29.377   9.773  45.985  1.00  0.00     0.149 C 
ENDBRANCH  26  28
ENDBRANCH  20  22
ENDBRANCH   3  20
BRANCH   4  38
ATOM     38  O   UNL     1      22.861   2.898  50.764  1.00  0.00    -0.494 OA
ATOM     39  C   UNL     1      21.866   2.914  51.797  1.00  0.00     0.278 C 
ENDBRANCH   4  38
TORSDOF 10
ENDMDL
MODEL 4
REMARK VINA RESULT:    -8.701      2.300      3.729
REMARK INTER + INTRA:         -15.307
REMARK INTER:                 -13.626
REMARK INTRA:                  -1.681
REMARK UNBOUND:                -1.519
REMARK SMILES C=CC(=O)Nc1cc(Nc2nccc(-c3cn(C)c4ccccc34)n2)c(OC)cc1N(C)CCN(C)C
REMARK SMILES IDX 6 1 7 2 8 3 26 4 29 5 30 6 5 7 3 8 4 9 2 11 1 12 31 13 32 14
REMARK SMILES IDX 33 15 34 16 35 17 36 18 37 19 9 20 10 22 11 23 25 24 12 25
REMARK SMILES IDX 14 26 13 27 15 28 16 29 24 30 17 31 23 32 19 33 22 34 20 35
REMARK SMILES IDX 21 36 18 37 27 38 28 39
REMARK H PARENT 5 10 9 21
ROOT
ATOM      1  C   UNL     1      29.168   6.132  48.174  1.00  0.00     0.067 A 
ATOM      2  C   UNL     1      28.094   5.250  48.418  1.00  0.00     0.058 A 
ATOM      3  C   UNL     1      26.834   5.718  48.791  1.00  0.00     0.086 A 
ATOM      4  C   UNL     1      26.685   7.102  48.961  1.00  0.00     0.144 A 
ATOM      5  C   UNL     1      27.734   7.994  48.745  1.00  0.00     0.076 A 
ATOM      6  C   UNL     1      29.009   7.525  48.385  1.00  0.00     0.064 A 
ENDROOT
BRANCH   1   7
ATOM      7  N   UNL     1      30.381   5.523  47.768  1.00  0.00    -0.321 N 
ATOM      8  C   UNL     1      31.462   5.211  48.573  1.00  0.00     0.247 C 
ATOM      9  O   UNL     1      31.674   5.542  49.733  1.00  0.00    -0.270 OA
ATOM     10  H   UNL     1      30.543   5.511  46.769  1.00  0.00     0.170 HD
BRANCH   8  11
ATOM     11  C   UNL     1      32.487   4.434  47.807  1.00  0.00     0.064 C 
ATOM     12  C   UNL     1      32.125   3.517  46.901  1.00  0.00     0.014 C 
ENDBRANCH   8  11
ENDBRANCH   1   7
BRANCH   6  13
ATOM     13  N   UNL     1      30.128   8.392  48.399  1.00  0.00    -0.372 N 
ATOM     14  C   UNL     1      30.647   8.763  47.074  1.00  0.00     0.143 C 
BRANCH  13  15
ATOM     15  C   UNL     1      29.938   9.502  49.357  1.00  0.00     0.131 C 
BRANCH  15  16
ATOM     16  C   UNL     1      30.701  10.770  48.908  1.00  0.00     0.105 C 
BRANCH  16  17
ATOM     17  N   UNL     1      29.817  11.924  48.613  1.00  0.00    -0.308 NA
ATOM     18  C   UNL     1      28.417  11.552  48.867  1.00  0.00     0.105 C 
ATOM     19  C   UNL     1      29.961  12.366  47.221  1.00  0.00     0.105 C 
ENDBRANCH  16  17
ENDBRANCH  15  16
ENDBRANCH  13  15
ENDBRANCH   6  13
BRANCH   3  20
ATOM     20  N   UNL     1      25.743   4.870  49.025  1.00  0.00    -0.321 N 
ATOM     21  H   UNL     1      24.984   4.973  48.363  1.00  0.00     0.170 HD
BRANCH  20  22
ATOM     22  C   UNL     1      25.246   4.335  50.214  1.00  0.00     0.227 A 
ATOM     23  N   UNL     1      24.137   4.820  50.798  1.00  0.00    -0.221 NA
ATOM     24  N   UNL     1      25.923   3.273  50.674  1.00  0.00    -0.213 NA
ATOM     25  C   UNL     1      23.712   4.193  51.912  1.00  0.00     0.117 A 
ATOM     26  C   UNL     1      25.473   2.668  51.797  1.00  0.00     0.078 A 
ATOM     27  C   UNL     1      24.353   3.109  52.462  1.00  0.00     0.049 A 
BRANCH  26  28
ATOM     28  C   UNL     1      26.264   1.521  52.246  1.00  0.00     0.026 A 
ATOM     29  C   UNL     1      25.853   0.224  51.989  1.00  0.00     0.096 A 
ATOM     30  C   UNL     1      27.496   1.415  52.990  1.00  0.00     0.009 A 
ATOM     31  N   UNL     1      26.776  -0.641  52.494  1.00  0.00    -0.350 N 
ATOM     32  C   UNL     1      28.393   2.333  53.592  1.00  0.00     0.011 A 
ATOM     33  C   UNL     1      27.797   0.048  53.105  1.00  0.00     0.048 A 
ATOM     34  C   UNL     1      29.550   1.874  54.237  1.00  0.00     0.001 A 
ATOM     35  C   UNL     1      28.952  -0.423  53.756  1.00  0.00     0.027 A 
ATOM     36  C   UNL     1      29.828   0.514  54.310  1.00  0.00     0.002 A 
ATOM     37  C   UNL     1      26.672  -2.083  52.419  1.00  0.00     0.149 C 
ENDBRANCH  26  28
ENDBRANCH  20  22
ENDBRANCH   3  20
BRANCH   4  38
ATOM     38  O   UNL     1      25.466   7.590  49.365  1.00  0.00    -0.494 OA
ATOM     39  C   UNL     1      25.281   8.924  48.872  1.00  0.00     0.278 C 
ENDBRANCH   4  38
TORSDOF 10
ENDMDL
MODEL 5
REMARK VINA RESULT:    -8.670      2.531      4.553
REMARK INTER + INTRA:         -15.257
REMARK INTER:                 -13.557
REMARK INTRA:                  -1.700
REMARK UNBOUND:                -1.519
REMARK SMILES C=CC(=O)Nc1cc(Nc2nccc(-c3cn(C)c4ccccc34)n2)c(OC)cc1N(C)CCN(C)C
REMARK SMILES IDX 6 1 7 2 8 3 26 4 29 5 30 6 5 7 3 8 4 9 2 11 1 12 31 13 32 14
REMARK SMILES IDX 33 15 34 16 35 17 36 18 37 19 9 20 10 22 11 23 25 24 12 25
REMARK SMILES IDX 14 26 13 27 15 28 16 29 24 30 17 31 23 32 19 33 22 34 20 35
REMARK SMILES IDX 21 36 18 37 27 38 28 39
REMARK H PARENT 5 10 9 21
ROOT
ATOM      1  C   UNL     1      25.716   6.231  49.177  1.00  0.00     0.067 A 
ATOM      2  C   UNL     1      25.315   5.492  50.309  1.00  0.00     0.058 A 
ATOM      3  C   UNL     1      23.982   5.444  50.716  1.00  0.00     0.086 A 
ATOM      4  C   UNL     1      23.056   6.199  49.982  1.00  0.00     0.144 A 
ATOM      5  C   UNL     1      23.428   6.954  48.870  1.00  0.00     0.076 A 
ATOM      6  C   UNL     1      24.773   7.017  48.467  1.00  0.00     0.064 A 
ENDROOT
BRANCH   1   7
ATOM      7  N   UNL     1      27.094   6.162  48.857  1.00  0.00    -0.321 N 
ATOM      8  C   UNL     1      27.837   5.017  48.634  1.00  0.00     0.247 C 
ATOM      9  O   UNL     1      27.523   3.849  48.833  1.00  0.00    -0.270 OA
ATOM     10  H   UNL     1      27.616   7.016  49.014  1.00  0.00     0.170 HD
BRANCH   8  11
ATOM     11  C   UNL     1      29.217   5.362  48.167  1.00  0.00     0.064 C 
ATOM     12  C   UNL     1      29.515   6.596  47.744  1.00  0.00     0.014 C 
ENDBRANCH   8  11
ENDBRANCH   1   7
BRANCH   6  13
ATOM     13  N   UNL     1      25.193   7.960  47.498  1.00  0.00    -0.372 N 
ATOM     14  C   UNL     1      24.405   7.973  46.257  1.00  0.00     0.143 C 
BRANCH  13  15
ATOM     15  C   UNL     1      25.461   9.279  48.111  1.00  0.00     0.131 C 
BRANCH  15  16
ATOM     16  C   UNL     1      26.930   9.710  47.899  1.00  0.00     0.105 C 
BRANCH  16  17
ATOM     17  N   UNL     1      27.838   9.292  48.995  1.00  0.00    -0.308 NA
ATOM     18  C   UNL     1      27.142   9.409  50.285  1.00  0.00     0.105 C 
ATOM     19  C   UNL     1      29.058  10.108  49.020  1.00  0.00     0.105 C 
ENDBRANCH  16  17
ENDBRANCH  15  16
ENDBRANCH  13  15
ENDBRANCH   6  13
BRANCH   3  20
ATOM     20  N   UNL     1      23.548   4.706  51.827  1.00  0.00    -0.321 N 
ATOM     21  H   UNL     1      23.574   5.213  52.702  1.00  0.00     0.170 HD
BRANCH  20  22
ATOM     22  C   UNL     1      23.606   3.337  52.088  1.00  0.00     0.227 A 
ATOM     23  N   UNL     1      22.535   2.541  51.931  1.00  0.00    -0.221 NA
ATOM     24  N   UNL     1      24.820   2.887  52.437  1.00  0.00    -0.213 NA
ATOM     25  C   UNL     1      22.716   1.225  52.154  1.00  0.00     0.117 A 
ATOM     26  C   UNL     1      24.968   1.560  52.660  1.00  0.00     0.078 A 
ATOM     27  C   UNL     1      23.919   0.680  52.532  1.00  0.00     0.049 A 
BRANCH  26  28
ATOM     28  C   UNL     1      26.317   1.140  53.044  1.00  0.00     0.026 A 
ATOM     29  C   UNL     1      27.222   2.043  53.574  1.00  0.00     0.096 A 
ATOM     30  C   UNL     1      27.002  -0.127  52.975  1.00  0.00     0.009 A 
ATOM     31  N   UNL     1      28.382   1.389  53.861  1.00  0.00    -0.350 N 
ATOM     32  C   UNL     1      26.680  -1.424  52.500  1.00  0.00     0.011 A 
ATOM     33  C   UNL     1      28.284   0.061  53.516  1.00  0.00     0.048 A 
ATOM     34  C   UNL     1      27.604  -2.471  52.614  1.00  0.00     0.001 A 
ATOM     35  C   UNL     1      29.221  -0.981  53.629  1.00  0.00     0.027 A 
ATOM     36  C   UNL     1      28.856  -2.253  53.179  1.00  0.00     0.002 A 
ATOM     37  C   UNL     1      29.559   2.019  54.420  1.00  0.00     0.149 C 
ENDBRANCH  26  28
ENDBRANCH  20  22
ENDBRANCH   3  20
BRANCH   4  38
ATOM     38  O   UNL     1      21.741   6.203  50.381  1.00  0.00    -0.494 OA
ATOM     39  C   UNL     1      21.340   7.531  50.743  1.00  0.00     0.278 C 
ENDBRANCH   4  38
TORSDOF 10
ENDMDL
MODEL 6
REMARK VINA RESULT:    -8.640      2.356      4.529
REMARK INTER + INTRA:         -15.210
REMARK INTER:                 -13.169
REMARK INTRA:                  -2.041
REMARK UNBOUND:                -1.519
REMARK SMILES C=CC(=O)Nc1cc(Nc2nccc(-c3cn(C)c4ccccc34)n2)c(OC)cc1N(C)CCN(C)C
REMARK SMILES IDX 6 1 7 2 8 3 26 4 29 5 30 6 5 7 3 8 4 9 2 11 1 12 31 13 32 14
REMARK SMILES IDX 33 15 34 16 35 17 36 18 37 19 9 20 10 22 11 23 25 24 12 25
REMARK SMILES IDX 14 26 13 27 15 28 16 29 24 30 17 31 23 32 19 33 22 34 20 35
REMARK SMILES IDX 21 36 18 37 27 38 28 39
REMARK H PARENT 5 10 9 21
ROOT
ATOM      1  C   UNL     1      24.928   6.586  48.752  1.00  0.00     0.067 A 
ATOM      2  C   UNL     1      25.093   5.247  49.165  1.00  0.00     0.058 A 
ATOM      3  C   UNL     1      26.344   4.630  49.160  1.00  0.00     0.086 A 
ATOM      4  C   UNL     1      27.430   5.377  48.684  1.00  0.00     0.144 A 
ATOM      5  C   UNL     1      27.292   6.696  48.252  1.00  0.00     0.076 A 
ATOM      6  C   UNL     1      26.031   7.316  48.240  1.00  0.00     0.064 A 
ENDROOT
BRANCH   1   7
ATOM      7  N   UNL     1      23.610   7.097  48.842  1.00  0.00    -0.321 N 
ATOM      8  C   UNL     1      23.067   7.807  49.898  1.00  0.00     0.247 C 
ATOM      9  O   UNL     1      23.530   7.990  51.017  1.00  0.00    -0.270 OA
ATOM     10  H   UNL     1      22.956   6.723  48.165  1.00  0.00     0.170 HD
BRANCH   8  11
ATOM     11  C   UNL     1      21.699   8.309  49.551  1.00  0.00     0.064 C 
ATOM     12  C   UNL     1      21.524   9.515  48.998  1.00  0.00     0.014 C 
ENDBRANCH   8  11
ENDBRANCH   1   7
BRANCH   6  13
ATOM     13  N   UNL     1      25.841   8.557  47.586  1.00  0.00    -0.372 N 
ATOM     14  C   UNL     1      26.310   9.734  48.331  1.00  0.00     0.143 C 
BRANCH  13  15
ATOM     15  C   UNL     1      26.247   8.484  46.165  1.00  0.00     0.131 C 
BRANCH  15  16
ATOM     16  C   UNL     1      25.020   8.340  45.236  1.00  0.00     0.105 C 
BRANCH  16  17
ATOM     17  N   UNL     1      23.724   8.562  45.923  1.00  0.00    -0.308 NA
ATOM     18  C   UNL     1      22.753   7.547  45.486  1.00  0.00     0.105 C 
ATOM     19  C   UNL     1      23.192   9.901  45.642  1.00  0.00     0.105 C 
ENDBRANCH  16  17
ENDBRANCH  15  16
ENDBRANCH  13  15
ENDBRANCH   6  13
BRANCH   3  20
ATOM     20  N   UNL     1      26.545   3.307  49.578  1.00  0.00    -0.321 N 
ATOM     21  H   UNL     1      26.391   2.612  48.859  1.00  0.00     0.170 HD
BRANCH  20  22
ATOM     22  C   UNL     1      26.380   2.715  50.831  1.00  0.00     0.227 A 
ATOM     23  N   UNL     1      27.413   2.540  51.672  1.00  0.00    -0.221 NA
ATOM     24  N   UNL     1      25.112   2.403  51.138  1.00  0.00    -0.213 NA
ATOM     25  C   UNL     1      27.133   2.012  52.879  1.00  0.00     0.117 A 
ATOM     26  C   UNL     1      24.864   1.869  52.357  1.00  0.00     0.078 A 
ATOM     27  C   UNL     1      25.868   1.648  53.271  1.00  0.00     0.049 A 
BRANCH  26  28
ATOM     28  C   UNL     1      23.461   1.548  52.622  1.00  0.00     0.026 A 
ATOM     29  C   UNL     1      22.443   2.378  52.185  1.00  0.00     0.096 A 
ATOM     30  C   UNL     1      22.824   0.460  53.324  1.00  0.00     0.009 A 
ATOM     31  N   UNL     1      21.246   1.836  52.544  1.00  0.00    -0.350 N 
ATOM     32  C   UNL     1      23.272  -0.678  54.040  1.00  0.00     0.011 A 
ATOM     33  C   UNL     1      21.437   0.661  53.235  1.00  0.00     0.048 A 
ATOM     34  C   UNL     1      22.349  -1.576  54.595  1.00  0.00     0.001 A 
ATOM     35  C   UNL     1      20.503  -0.230  53.792  1.00  0.00     0.027 A 
ATOM     36  C   UNL     1      20.983  -1.357  54.465  1.00  0.00     0.002 A 
ATOM     37  C   UNL     1      19.959   2.436  52.262  1.00  0.00     0.149 C 
ENDBRANCH  26  28
ENDBRANCH  20  22
ENDBRANCH   3  20
BRANCH   4  38
ATOM     38  O   UNL     1      28.668   4.784  48.630  1.00  0.00    -0.494 OA
ATOM     39  C   UNL     1      29.614   5.671  48.017  1.00  0.00     0.278 C 
ENDBRANCH   4  38
TORSDOF 10
ENDMDL
MODEL 7
REMARK VINA RESULT:    -8.609      2.166      9.919
REMARK INTER + INTRA:         -15.161
REMARK INTER:                 -14.206
REMARK INTRA:                  -0.956
REMARK UNBOUND:                -1.519
REMARK SMILES C=CC(=O)Nc1cc(Nc2nccc(-c3cn(C)c4ccccc34)n2)c(OC)cc1N(C)CCN(C)C
REMARK SMILES IDX 6 1 7 2 8 3 26 4 29 5 30 6 5 7 3 8 4 9 2 11 1 12 31 13 32 14
REMARK SMILES IDX 33 15 34 16 35 17 36 18 37 19 9 20 10 22 11 23 25 24 12 25
REMARK SMILES IDX 14 26 13 27 15 28 16 29 24 30 17 31 23 32 19 33 22 34 20 35
REMARK SMILES IDX 21 36 18 37 27 38 28 39
REMARK H PARENT 5 10 9 21
ROOT
ATOM      1  C   UNL     1      26.058   2.723  51.171  1.00  0.00     0.067 A 
ATOM      2  C   UNL     1      26.914   3.224  50.167  1.00  0.00     0.058 A 
ATOM      3  C   UNL     1      26.553   4.316  49.378  1.00  0.00     0.086 A 
ATOM      4  C   UNL     1      25.283   4.872  49.588  1.00  0.00     0.144 A 
ATOM      5  C   UNL     1      24.410   4.384  50.560  1.00  0.00     0.076 A 
ATOM      6  C   UNL     1      24.763   3.274  51.346  1.00  0.00     0.064 A 
ENDROOT
BRANCH   1   7
ATOM      7  N   UNL     1      26.566   1.633  51.921  1.00  0.00    -0.321 N 
ATOM      8  C   UNL     1      27.646   1.654  52.785  1.00  0.00     0.247 C 
ATOM      9  O   UNL     1      28.478   2.538  52.951  1.00  0.00    -0.270 OA
ATOM     10  H   UNL     1      26.236   0.721  51.632  1.00  0.00     0.170 HD
BRANCH   8  11
ATOM     11  C   UNL     1      27.772   0.349  53.508  1.00  0.00     0.064 C 
ATOM     12  C   UNL     1      28.359   0.275  54.707  1.00  0.00     0.014 C 
ENDBRANCH   8  11
ENDBRANCH   1   7
BRANCH   6  13
ATOM     13  N   UNL     1      23.801   2.629  52.160  1.00  0.00    -0.372 N 
ATOM     14  C   UNL     1      22.632   3.447  52.513  1.00  0.00     0.143 C 
BRANCH  13  15
ATOM     15  C   UNL     1      23.515   1.262  51.674  1.00  0.00     0.131 C 
BRANCH  15  16
ATOM     16  C   UNL     1      22.249   0.680  52.343  1.00  0.00     0.105 C 
BRANCH  16  17
ATOM     17  N   UNL     1      22.525  -0.468  53.242  1.00  0.00    -0.308 NA
ATOM     18  C   UNL     1      21.690  -0.364  54.448  1.00  0.00     0.105 C 
ATOM     19  C   UNL     1      23.941  -0.517  53.628  1.00  0.00     0.105 C 
ENDBRANCH  16  17
ENDBRANCH  15  16
ENDBRANCH  13  15
ENDBRANCH   6  13
BRANCH   3  20
ATOM     20  N   UNL     1      27.385   4.848  48.384  1.00  0.00    -0.321 N 
ATOM     21  H   UNL     1      27.660   4.186  47.669  1.00  0.00     0.170 HD
BRANCH  20  22
ATOM     22  C   UNL     1      28.323   5.879  48.440  1.00  0.00     0.227 A 
ATOM     23  N   UNL     1      27.959   7.155  48.652  1.00  0.00    -0.221 NA
ATOM     24  N   UNL     1      29.599   5.480  48.331  1.00  0.00    -0.213 NA
ATOM     25  C   UNL     1      28.950   8.063  48.746  1.00  0.00     0.117 A 
ATOM     26  C   UNL     1      30.570   6.417  48.425  1.00  0.00     0.078 A 
ATOM     27  C   UNL     1      30.282   7.746  48.629  1.00  0.00     0.049 A 
BRANCH  26  28
ATOM     28  C   UNL     1      31.938   5.911  48.290  1.00  0.00     0.026 A 
ATOM     29  C   UNL     1      33.022   6.660  48.715  1.00  0.00     0.096 A 
ATOM     30  C   UNL     1      32.478   4.691  47.742  1.00  0.00     0.009 A 
ATOM     31  N   UNL     1      34.164   5.951  48.493  1.00  0.00    -0.350 N 
ATOM     32  C   UNL     1      31.938   3.544  47.108  1.00  0.00     0.011 A 
ATOM     33  C   UNL     1      33.872   4.741  47.907  1.00  0.00     0.048 A 
ATOM     34  C   UNL     1      32.777   2.493  46.709  1.00  0.00     0.001 A 
ATOM     35  C   UNL     1      34.722   3.696  47.504  1.00  0.00     0.027 A 
ATOM     36  C   UNL     1      34.150   2.567  46.912  1.00  0.00     0.002 A 
ATOM     37  C   UNL     1      35.495   6.426  48.805  1.00  0.00     0.149 C 
ENDBRANCH  26  28
ENDBRANCH  20  22
ENDBRANCH   3  20
BRANCH   4  38
ATOM     38  O   UNL     1      24.883   5.924  48.800  1.00  0.00    -0.494 OA
ATOM     39  C   UNL     1      23.544   5.710  48.335  1.00  0.00     0.278 C 
ENDBRANCH   4  38
TORSDOF 10
ENDMDL
MODEL 8
REMARK VINA RESULT:    -8.490      2.599      9.279
REMARK INTER + INTRA:         -14.973
REMARK INTER:                 -13.301
REMARK INTRA:                  -1.672
REMARK UNBOUND:                -1.519
REMARK SMILES C=CC(=O)Nc1cc(Nc2nccc(-c3cn(C)c4ccccc34)n2)c(OC)cc1N(C)CCN(C)C
REMARK SMILES IDX 6 1 7 2 8 3 26 4 29 5 30 6 5 7 3 8 4 9 2 11 1 12 31 13 32 14
REMARK SMILES IDX 33 15 34 16 35 17 36 18 37 19 9 20 10 22 11 23 25 24 12 25
REMARK SMILES IDX 14 26 13 27 15 28 16 29 24 30 17 31 23 32 19 33 22 34 20 35
REMARK SMILES IDX 21 36 18 37 27 38 28 39
REMARK H PARENT 5 10 9 21
ROOT
ATOM      1  C   UNL     1      25.850   3.358  50.583  1.00  0.00     0.067 A 
ATOM      2  C   UNL     1      26.702   3.930  49.614  1.00  0.00     0.058 A 
ATOM      3  C   UNL     1      26.506   5.229  49.145  1.00  0.00     0.086 A 
ATOM      4  C   UNL     1      25.399   5.933  49.639  1.00  0.00     0.144 A 
ATOM      5  C   UNL     1      24.530   5.385  50.582  1.00  0.00     0.076 A 
ATOM      6  C   UNL     1      24.715   4.071  51.045  1.00  0.00     0.064 A 
ENDROOT
BRANCH   1   7
ATOM      7  N   UNL     1      26.187   2.045  50.995  1.00  0.00    -0.321 N 
ATOM      8  C   UNL     1      27.088   1.692  51.983  1.00  0.00     0.247 C 
ATOM      9  O   UNL     1      27.894   2.401  52.573  1.00  0.00    -0.270 OA
ATOM     10  H   UNL     1      25.896   1.308  50.364  1.00  0.00     0.170 HD
BRANCH   8  11
ATOM     11  C   UNL     1      27.050   0.216  52.233  1.00  0.00     0.064 C 
ATOM     12  C   UNL     1      25.974  -0.366  52.776  1.00  0.00     0.014 C 
ENDBRANCH   8  11
ENDBRANCH   1   7
BRANCH   6  13
ATOM     13  N   UNL     1      23.714   3.427  51.812  1.00  0.00    -0.372 N 
ATOM     14  C   UNL     1      23.871   3.544  53.268  1.00  0.00     0.143 C 
BRANCH  13  15
ATOM     15  C   UNL     1      22.364   3.709  51.279  1.00  0.00     0.131 C 
BRANCH  15  16
ATOM     16  C   UNL     1      22.066   2.862  50.021  1.00  0.00     0.105 C 
BRANCH  16  17
ATOM     17  N   UNL     1      21.446   3.634  48.916  1.00  0.00    -0.308 NA
ATOM     18  C   UNL     1      22.451   3.901  47.875  1.00  0.00     0.105 C 
ATOM     19  C   UNL     1      20.891   4.905  49.398  1.00  0.00     0.105 C 
ENDBRANCH  16  17
ENDBRANCH  15  16
ENDBRANCH  13  15
ENDBRANCH   6  13
BRANCH   3  20
ATOM     20  N   UNL     1      27.342   5.833  48.196  1.00  0.00    -0.321 N 
ATOM     21  H   UNL     1      27.437   5.315  47.332  1.00  0.00     0.170 HD
BRANCH  20  22
ATOM     22  C   UNL     1      28.453   6.661  48.359  1.00  0.00     0.227 A 
ATOM     23  N   UNL     1      28.325   7.969  48.638  1.00  0.00    -0.221 NA
ATOM     24  N   UNL     1      29.635   6.032  48.278  1.00  0.00    -0.213 NA
ATOM     25  C   UNL     1      29.462   8.664  48.833  1.00  0.00     0.117 A 
ATOM     26  C   UNL     1      30.759   6.759  48.474  1.00  0.00     0.078 A 
ATOM     27  C   UNL     1      30.715   8.105  48.753  1.00  0.00     0.049 A 
BRANCH  26  28
ATOM     28  C   UNL     1      32.012   6.010  48.365  1.00  0.00     0.026 A 
ATOM     29  C   UNL     1      33.190   6.505  48.898  1.00  0.00     0.096 A 
ATOM     30  C   UNL     1      32.345   4.750  47.748  1.00  0.00     0.009 A 
ATOM     31  N   UNL     1      34.188   5.606  48.675  1.00  0.00    -0.350 N 
ATOM     32  C   UNL     1      31.639   3.774  47.001  1.00  0.00     0.011 A 
ATOM     33  C   UNL     1      33.710   4.518  47.982  1.00  0.00     0.048 A 
ATOM     34  C   UNL     1      32.287   2.612  46.559  1.00  0.00     0.001 A 
ATOM     35  C   UNL     1      34.372   3.359  47.538  1.00  0.00     0.027 A 
ATOM     36  C   UNL     1      33.634   2.405  46.832  1.00  0.00     0.002 A 
ATOM     37  C   UNL     1      35.564   5.793  49.086  1.00  0.00     0.149 C 
ENDBRANCH  26  28
ENDBRANCH  20  22
ENDBRANCH   3  20
BRANCH   4  38
ATOM     38  O   UNL     1      25.157   7.201  49.168  1.00  0.00    -0.494 OA
ATOM     39  C   UNL     1      24.905   8.094  50.261  1.00  0.00     0.278 C 
ENDBRANCH   4  38
TORSDOF 10
ENDMDL
MODEL 9
REMARK VINA RESULT:    -8.462      1.466      2.421
REMARK INTER + INTRA:         -14.928
REMARK INTER:                 -13.346
REMARK INTRA:                  -1.582
REMARK UNBOUND:                -1.519
REMARK SMILES C=CC(=O)Nc1cc(Nc2nccc(-c3cn(C)c4ccccc34)n2)c(OC)cc1N(C)CCN(C)C
REMARK SMILES IDX 6 1 7 2 8 3 26 4 29 5 30 6 5 7 3 8 4 9 2 11 1 12 31 13 32 14
REMARK SMILES IDX 33 15 34 16 35 17 36 18 37 19 9 20 10 22 11 23 25 24 12 25
REMARK SMILES IDX 14 26 13 27 15 28 16 29 24 30 17 31 23 32 19 33 22 34 20 35
REMARK SMILES IDX 21 36 18 37 27 38 28 39
REMARK H PARENT 5 10 9 21
ROOT
ATOM      1  C   UNL     1      27.931   5.963  48.330  1.00  0.00     0.067 A 
ATOM      2  C   UNL     1      27.841   4.631  48.788  1.00  0.00     0.058 A 
ATOM      3  C   UNL     1      26.690   4.149  49.411  1.00  0.00     0.086 A 
ATOM      4  C   UNL     1      25.636   5.053  49.609  1.00  0.00     0.144 A 
ATOM      5  C   UNL     1      25.706   6.379  49.183  1.00  0.00     0.076 A 
ATOM      6  C   UNL     1      26.870   6.873  48.570  1.00  0.00     0.064 A 
ENDROOT
BRANCH   1   7
ATOM      7  N   UNL     1      29.144   6.307  47.684  1.00  0.00    -0.321 N 
ATOM      8  C   UNL     1      30.421   5.942  48.070  1.00  0.00     0.247 C 
ATOM      9  O   UNL     1      30.784   5.413  49.113  1.00  0.00    -0.270 OA
ATOM     10  H   UNL     1      29.073   7.056  47.006  1.00  0.00     0.170 HD
BRANCH   8  11
ATOM     11  C   UNL     1      31.426   6.366  47.044  1.00  0.00     0.064 C 
ATOM     12  C   UNL     1      32.688   5.926  47.088  1.00  0.00     0.014 C 
ENDBRANCH   8  11
ENDBRANCH   1   7
BRANCH   6  13
ATOM     13  N   UNL     1      27.040   8.261  48.354  1.00  0.00    -0.372 N 
ATOM     14  C   UNL     1      26.123   8.858  47.372  1.00  0.00     0.143 C 
BRANCH  13  15
ATOM     15  C   UNL     1      27.188   8.991  49.632  1.00  0.00     0.131 C 
BRANCH  15  16
ATOM     16  C   UNL     1      28.493   9.819  49.660  1.00  0.00     0.105 C 
BRANCH  16  17
ATOM     17  N   UNL     1      29.542   9.308  48.745  1.00  0.00    -0.308 NA
ATOM     18  C   UNL     1      30.821   9.211  49.465  1.00  0.00     0.105 C 
ATOM     19  C   UNL     1      29.703  10.180  47.575  1.00  0.00     0.105 C 
ENDBRANCH  16  17
ENDBRANCH  15  16
ENDBRANCH  13  15
ENDBRANCH   6  13
BRANCH   3  20
ATOM     20  N   UNL     1      26.562   2.828  49.863  1.00  0.00    -0.321 N 
ATOM     21  H   UNL     1      26.040   2.222  49.244  1.00  0.00     0.170 HD
BRANCH  20  22
ATOM     22  C   UNL     1      26.513   2.312  51.159  1.00  0.00     0.227 A 
ATOM     23  N   UNL     1      27.563   2.393  51.993  1.00  0.00    -0.221 NA
ATOM     24  N   UNL     1      25.325   1.797  51.510  1.00  0.00    -0.213 NA
ATOM     25  C   UNL     1      27.389   1.915  53.240  1.00  0.00     0.117 A 
ATOM     26  C   UNL     1      25.184   1.320  52.768  1.00  0.00     0.078 A 
ATOM     27  C   UNL     1      26.214   1.355  53.679  1.00  0.00     0.049 A 
BRANCH  26  28
ATOM     28  C   UNL     1      23.865   0.767  53.080  1.00  0.00     0.026 A 
ATOM     29  C   UNL     1      23.733  -0.387  53.832  1.00  0.00     0.096 A 
ATOM     30  C   UNL     1      22.527   1.178  52.732  1.00  0.00     0.009 A 
ATOM     31  N   UNL     1      22.409  -0.665  53.989  1.00  0.00    -0.350 N 
ATOM     32  C   UNL     1      21.961   2.221  51.956  1.00  0.00     0.011 A 
ATOM     33  C   UNL     1      21.641   0.272  53.337  1.00  0.00     0.048 A 
ATOM     34  C   UNL     1      20.569   2.349  51.845  1.00  0.00     0.001 A 
ATOM     35  C   UNL     1      20.244   0.387  53.227  1.00  0.00     0.027 A 
ATOM     36  C   UNL     1      19.723   1.447  52.479  1.00  0.00     0.002 A 
ATOM     37  C   UNL     1      21.893  -1.807  54.713  1.00  0.00     0.149 C 
ENDBRANCH  26  28
ENDBRANCH  20  22
ENDBRANCH   3  20
BRANCH   4  38
ATOM     38  O   UNL     1      24.505   4.618  50.254  1.00  0.00    -0.494 OA
ATOM     39  C   UNL     1      23.403   4.566  49.338  1.00  0.00     0.278 C 
ENDBRANCH   4  38
TORSDOF 10
ENDMDL
MODEL 10
REMARK VINA RESULT:    -8.413      2.493     10.071
REMARK INTER + INTRA:         -14.850
REMARK INTER:                 -13.562
REMARK INTRA:                  -1.288
REMARK UNBOUND:                -1.519
REMARK SMILES C=CC(=O)Nc1cc(Nc2nccc(-c3cn(C)c4ccccc34)n2)c(OC)cc1N(C)CCN(C)C
REMARK SMILES IDX 6 1 7 2 8 3 26 4 29 5 30 6 5 7 3 8 4 9 2 11 1 12 31 13 32 14
REMARK SMILES IDX 33 15 34 16 35 17 36 18 37 19 9 20 10 22 11 23 25 24 12 25
REMARK SMILES IDX 14 26 13 27 15 28 16 29 24 30 17 31 23 32 19 33 22 34 20 35
REMARK SMILES IDX 21 36 18 37 27 38 28 39
REMARK H PARENT 5 10 9 21
ROOT
ATOM      1  C   UNL     1      26.363   1.187  52.252  1.00  0.00     0.067 A 
ATOM      2  C   UNL     1      26.457   2.144  51.220  1.00  0.00     0.058 A 
ATOM      3  C   UNL     1      25.323   2.753  50.682  1.00  0.00     0.086 A 
ATOM      4  C   UNL     1      24.076   2.344  51.176  1.00  0.00     0.144 A 
ATOM      5  C   UNL     1      23.954   1.386  52.183  1.00  0.00     0.076 A 
ATOM      6  C   UNL     1      25.093   0.759  52.715  1.00  0.00     0.064 A 
ENDROOT
BRANCH   1   7
ATOM      7  N   UNL     1      27.596   0.677  52.728  1.00  0.00    -0.321 N 
ATOM      8  C   UNL     1      28.469   1.301  53.602  1.00  0.00     0.247 C 
ATOM      9  O   UNL     1      28.458   2.460  54.000  1.00  0.00    -0.270 OA
ATOM     10  H   UNL     1      27.960  -0.118  52.217  1.00  0.00     0.170 HD
BRANCH   8  11
ATOM     11  C   UNL     1      29.583   0.377  53.988  1.00  0.00     0.064 C 
ATOM     12  C   UNL     1      29.595  -0.898  53.585  1.00  0.00     0.014 C 
ENDBRANCH   8  11
ENDBRANCH   1   7
BRANCH   6  13
ATOM     13  N   UNL     1      24.969  -0.373  53.556  1.00  0.00    -0.372 N 
ATOM     14  C   UNL     1      25.586  -0.236  54.883  1.00  0.00     0.143 C 
BRANCH  13  15
ATOM     15  C   UNL     1      23.592  -0.913  53.532  1.00  0.00     0.131 C 
BRANCH  15  16
ATOM     16  C   UNL     1      23.009  -1.032  54.958  1.00  0.00     0.105 C 
BRANCH  16  17
ATOM     17  N   UNL     1      21.537  -0.856  55.017  1.00  0.00    -0.308 NA
ATOM     18  C   UNL     1      20.877  -1.989  54.348  1.00  0.00     0.105 C 
ATOM     19  C   UNL     1      21.122   0.399  54.378  1.00  0.00     0.105 C 
ENDBRANCH  16  17
ENDBRANCH  15  16
ENDBRANCH  13  15
ENDBRANCH   6  13
BRANCH   3  20
ATOM     20  N   UNL     1      25.382   3.718  49.668  1.00  0.00    -0.321 N 
ATOM     21  H   UNL     1      25.731   3.374  48.782  1.00  0.00     0.170 HD
BRANCH  20  22
ATOM     22  C   UNL     1      25.584   5.097  49.736  1.00  0.00     0.227 A 
ATOM     23  N   UNL     1      24.889   5.872  50.585  1.00  0.00    -0.221 NA
ATOM     24  N   UNL     1      26.560   5.558  48.940  1.00  0.00    -0.213 NA
ATOM     25  C   UNL     1      25.203   7.182  50.611  1.00  0.00     0.117 A 
ATOM     26  C   UNL     1      26.849   6.880  48.986  1.00  0.00     0.078 A 
ATOM     27  C   UNL     1      26.176   7.743  49.819  1.00  0.00     0.049 A 
BRANCH  26  28
ATOM     28  C   UNL     1      27.919   7.314  48.087  1.00  0.00     0.026 A 
ATOM     29  C   UNL     1      29.250   7.108  48.408  1.00  0.00     0.096 A 
ATOM     30  C   UNL     1      27.911   7.997  46.816  1.00  0.00     0.009 A 
ATOM     31  N   UNL     1      30.028   7.585  47.396  1.00  0.00    -0.350 N 
ATOM     32  C   UNL     1      26.911   8.533  45.966  1.00  0.00     0.011 A 
ATOM     33  C   UNL     1      29.246   8.129  46.404  1.00  0.00     0.048 A 
ATOM     34  C   UNL     1      27.262   9.130  44.746  1.00  0.00     0.001 A 
ATOM     35  C   UNL     1      29.610   8.731  45.186  1.00  0.00     0.027 A 
ATOM     36  C   UNL     1      28.594   9.220  44.360  1.00  0.00     0.002 A 
ATOM     37  C   UNL     1      31.475   7.549  47.391  1.00  0.00     0.149 C 
ENDBRANCH  26  28
ENDBRANCH  20  22
ENDBRANCH   3  20
BRANCH   4  38
ATOM     38  O   UNL     1      22.939   2.896  50.640  1.00  0.00    -0.494 OA
ATOM     39  C   UNL     1      22.132   3.469  51.678  1.00  0.00     0.278 C 
ENDBRANCH   4  38
TORSDOF 10
ENDMDL
MODEL 11
REMARK VINA RESULT:    -8.366      1.190      1.825
REMARK INTER + INTRA:         -14.776
REMARK INTER:                 -13.655
REMARK INTRA:                  -1.122
REMARK UNBOUND:                -1.519
REMARK SMILES C=CC(=O)Nc1cc(Nc2nccc(-c3cn(C)c4ccccc34)n2)c(OC)cc1N(C)CCN(C)C
REMARK SMILES IDX 6 1 7 2 8 3 26 4 29 5 30 6 5 7 3 8 4 9 2 11 1 12 31 13 32 14
REMARK SMILES IDX 33 15 34 16 35 17 36 18 37 19 9 20 10 22 11 23 25 24 12 25
REMARK SMILES IDX 14 26 13 27 15 28 16 29 24 30 17 31 23 32 19 33 22 34 20 35
REMARK SMILES IDX 21 36 18 37 27 38 28 39
REMARK H PARENT 5 10 9 21
ROOT
ATOM      1  C   UNL     1      28.709   6.221  48.185  1.00  0.00     0.067 A 
ATOM      2  C   UNL     1      28.206   4.953  48.545  1.00  0.00     0.058 A 
ATOM      3  C   UNL     1      26.901   4.790  49.009  1.00  0.00     0.086 A 
ATOM      4  C   UNL     1      26.117   5.944  49.151  1.00  0.00     0.144 A 
ATOM      5  C   UNL     1      26.596   7.212  48.822  1.00  0.00     0.076 A 
ATOM      6  C   UNL     1      27.916   7.382  48.369  1.00  0.00     0.064 A 
ENDROOT
BRANCH   1   7
ATOM      7  N   UNL     1      30.039   6.236  47.696  1.00  0.00    -0.321 N 
ATOM      8  C   UNL     1      31.176   5.832  48.373  1.00  0.00     0.247 C 
ATOM      9  O   UNL     1      31.303   5.553  49.559  1.00  0.00    -0.270 OA
ATOM     10  H   UNL     1      30.183   6.785  46.858  1.00  0.00     0.170 HD
BRANCH   8  11
ATOM     11  C   UNL     1      32.367   5.849  47.466  1.00  0.00     0.064 C 
ATOM     12  C   UNL     1      32.509   4.941  46.494  1.00  0.00     0.014 C 
ENDBRANCH   8  11
ENDBRANCH   1   7
BRANCH   6  13
ATOM     13  N   UNL     1      28.482   8.675  48.262  1.00  0.00    -0.372 N 
ATOM     14  C   UNL     1      29.523   8.985  49.253  1.00  0.00     0.143 C 
BRANCH  13  15
ATOM     15  C   UNL     1      28.804   9.008  46.858  1.00  0.00     0.131 C 
BRANCH  15  16
ATOM     16  C   UNL     1      30.189   9.683  46.742  1.00  0.00     0.105 C 
BRANCH  16  17
ATOM     17  N   UNL     1      30.741   9.677  45.364  1.00  0.00    -0.308 NA
ATOM     18  C   UNL     1      29.771  10.284  44.440  1.00  0.00     0.105 C 
ATOM     19  C   UNL     1      31.055   8.314  44.920  1.00  0.00     0.105 C 
ENDBRANCH  16  17
ENDBRANCH  15  16
ENDBRANCH  13  15
ENDBRANCH   6  13
BRANCH   3  20
ATOM     20  N   UNL     1      26.364   3.543  49.359  1.00  0.00    -0.321 N 
ATOM     21  H   UNL     1      25.610   3.229  48.762  1.00  0.00     0.170 HD
BRANCH  20  22
ATOM     22  C   UNL     1      26.258   2.915  50.600  1.00  0.00     0.227 A 
ATOM     23  N   UNL     1      27.331   2.716  51.386  1.00  0.00    -0.221 NA
ATOM     24  N   UNL     1      25.007   2.594  50.959  1.00  0.00    -0.213 NA
ATOM     25  C   UNL     1      27.108   2.153  52.589  1.00  0.00     0.117 A 
ATOM     26  C   UNL     1      24.817   2.025  52.172  1.00  0.00     0.078 A 
ATOM     27  C   UNL     1      25.862   1.778  53.030  1.00  0.00     0.049 A 
BRANCH  26  28
ATOM     28  C   UNL     1      23.427   1.696  52.494  1.00  0.00     0.026 A 
ATOM     29  C   UNL     1      22.387   2.516  52.094  1.00  0.00     0.096 A 
ATOM     30  C   UNL     1      22.826   0.608  53.226  1.00  0.00     0.009 A 
ATOM     31  N   UNL     1      21.209   1.968  52.504  1.00  0.00    -0.350 N 
ATOM     32  C   UNL     1      23.311  -0.524  53.930  1.00  0.00     0.011 A 
ATOM     33  C   UNL     1      21.436   0.799  53.192  1.00  0.00     0.048 A 
ATOM     34  C   UNL     1      22.417  -1.425  54.525  1.00  0.00     0.001 A 
ATOM     35  C   UNL     1      20.531  -0.096  53.791  1.00  0.00     0.027 A 
ATOM     36  C   UNL     1      21.044  -1.216  54.448  1.00  0.00     0.002 A 
ATOM     37  C   UNL     1      19.908   2.558  52.271  1.00  0.00     0.149 C 
ENDBRANCH  26  28
ENDBRANCH  20  22
ENDBRANCH   3  20
BRANCH   4  38
ATOM     38  O   UNL     1      24.841   5.821  49.642  1.00  0.00    -0.494 OA
ATOM     39  C   UNL     1      24.689   6.614  50.827  1.00  0.00     0.278 C 
ENDBRANCH   4  38
TORSDOF 10
ENDMDL
MODEL 12
REMARK VINA RESULT:    -8.291      2.108      3.913
REMARK INTER + INTRA:         -14.658
REMARK INTER:                 -12.723
REMARK INTRA:                  -1.935
REMARK UNBOUND:                -1.519
REMARK SMILES C=CC(=O)Nc1cc(Nc2nccc(-c3cn(C)c4ccccc34)n2)c(OC)cc1N(C)CCN(C)C
REMARK SMILES IDX 6 1 7 2 8 3 26 4 29 5 30 6 5 7 3 8 4 9 2 11 1 12 31 13 32 14
REMARK SMILES IDX 33 15 34 16 35 17 36 18 37 19 9 20 10 22 11 23 25 24 12 25
REMARK SMILES IDX 14 26 13 27 15 28 16 29 24 30 17 31 23 32 19 33 22 34 20 35
REMARK SMILES IDX 21 36 18 37 27 38 28 39
REMARK H PARENT 5 10 9 21
ROOT
ATOM      1  C   UNL     1      26.000   7.556  49.430  1.00  0.00     0.067 A 
ATOM      2  C   UNL     1      25.375   6.815  50.455  1.00  0.00     0.058 A 
ATOM      3  C   UNL     1      24.030   6.999  50.773  1.00  0.00     0.086 A 
ATOM      4  C   UNL     1      23.328   7.985  50.064  1.00  0.00     0.144 A 
ATOM      5  C   UNL     1      23.927   8.745  49.060  1.00  0.00     0.076 A 
ATOM      6  C   UNL     1      25.286   8.574  48.748  1.00  0.00     0.064 A 
ENDROOT
BRANCH   1   7
ATOM      7  N   UNL     1      27.361   7.241  49.189  1.00  0.00    -0.321 N 
ATOM      8  C   UNL     1      27.854   6.085  48.611  1.00  0.00     0.247 C 
ATOM      9  O   UNL     1      27.262   5.044  48.354  1.00  0.00    -0.270 OA
ATOM     10  H   UNL     1      28.030   7.825  49.675  1.00  0.00     0.170 HD
BRANCH   8  11
ATOM     11  C   UNL     1      29.330   6.195  48.384  1.00  0.00     0.064 C 
ATOM     12  C   UNL     1      30.040   5.153  47.938  1.00  0.00     0.014 C 
ENDBRANCH   8  11
ENDBRANCH   1   7
BRANCH   6  13
ATOM     13  N   UNL     1      25.957   9.494  47.907  1.00  0.00    -0.372 N 
ATOM     14  C   UNL     1      25.330   9.713  46.596  1.00  0.00     0.143 C 
BRANCH  13  15
ATOM     15  C   UNL     1      26.353  10.711  48.649  1.00  0.00     0.131 C 
BRANCH  15  16
ATOM     16  C   UNL     1      27.840  11.057  48.410  1.00  0.00     0.105 C 
BRANCH  16  17
ATOM     17  N   UNL     1      28.714   9.866  48.274  1.00  0.00    -0.308 NA
ATOM     18  C   UNL     1      29.790   9.926  49.275  1.00  0.00     0.105 C 
ATOM     19  C   UNL     1      29.299   9.782  46.930  1.00  0.00     0.105 C 
ENDBRANCH  16  17
ENDBRANCH  15  16
ENDBRANCH  13  15
ENDBRANCH   6  13
BRANCH   3  20
ATOM     20  N   UNL     1      23.374   6.269  51.774  1.00  0.00    -0.321 N 
ATOM     21  H   UNL     1      23.845   6.270  52.670  1.00  0.00     0.170 HD
BRANCH  20  22
ATOM     22  C   UNL     1      22.553   5.144  51.689  1.00  0.00     0.227 A 
ATOM     23  N   UNL     1      21.339   5.197  51.117  1.00  0.00    -0.221 NA
ATOM     24  N   UNL     1      23.103   4.015  52.160  1.00  0.00    -0.213 NA
ATOM     25  C   UNL     1      20.653   4.040  51.035  1.00  0.00     0.117 A 
ATOM     26  C   UNL     1      22.387   2.870  52.068  1.00  0.00     0.078 A 
ATOM     27  C   UNL     1      21.132   2.841  51.507  1.00  0.00     0.049 A 
BRANCH  26  28
ATOM     28  C   UNL     1      23.045   1.679  52.609  1.00  0.00     0.026 A 
ATOM     29  C   UNL     1      22.377   0.820  53.463  1.00  0.00     0.096 A 
ATOM     30  C   UNL     1      24.376   1.145  52.456  1.00  0.00     0.009 A 
ATOM     31  N   UNL     1      23.208  -0.208  53.795  1.00  0.00    -0.350 N 
ATOM     32  C   UNL     1      25.554   1.549  51.777  1.00  0.00     0.011 A 
ATOM     33  C   UNL     1      24.434  -0.048  53.194  1.00  0.00     0.048 A 
ATOM     34  C   UNL     1      26.706   0.752  51.820  1.00  0.00     0.001 A 
ATOM     35  C   UNL     1      25.587  -0.852  53.249  1.00  0.00     0.027 A 
ATOM     36  C   UNL     1      26.718  -0.437  52.541  1.00  0.00     0.002 A 
ATOM     37  C   UNL     1      22.850  -1.294  54.683  1.00  0.00     0.149 C 
ENDBRANCH  26  28
ENDBRANCH  20  22
ENDBRANCH   3  20
BRANCH   4  38
ATOM     38  O   UNL     1      22.012   8.217  50.381  1.00  0.00    -0.494 OA
ATOM     39  C   UNL     1      21.220   8.272  49.188  1.00  0.00     0.278 C 
ENDBRANCH   4  38
TORSDOF 10
ENDMDL
MODEL 13
REMARK VINA RESULT:    -8.266      2.326     10.016
REMARK INTER + INTRA:         -14.618
REMARK INTER:                 -13.305
REMARK INTRA:                  -1.313
REMARK UNBOUND:                -1.519
REMARK SMILES C=CC(=O)Nc1cc(Nc2nccc(-c3cn(C)c4ccccc34)n2)c(OC)cc1N(C)CCN(C)C
REMARK SMILES IDX 6 1 7 2 8 3 26 4 29 5 30 6 5 7 3 8 4 9 2 11 1 12 31 13 32 14
REMARK SMILES IDX 33 15 34 16 35 17 36 18 37 19 9 20 10 22 11 23 25 24 12 25
REMARK SMILES IDX 14 26 13 27 15 28 16 29 24 30 17 31 23 32 19 33 22 34 20 35
REMARK SMILES IDX 21 36 18 37 27 38 28 39
REMARK H PARENT 5 10 9 21
ROOT
ATOM      1  C   UNL     1      24.522   1.682  52.354  1.00  0.00     0.067 A 
ATOM      2  C   UNL     1      24.878   2.989  51.961  1.00  0.00     0.058 A 
ATOM      3  C   UNL     1      23.934   4.012  51.885  1.00  0.00     0.086 A 
ATOM      4  C   UNL     1      22.601   3.682  52.171  1.00  0.00     0.144 A 
ATOM      5  C   UNL     1      22.218   2.394  52.543  1.00  0.00     0.076 A 
ATOM      6  C   UNL     1      23.165   1.357  52.605  1.00  0.00     0.064 A 
ENDROOT
BRANCH   1   7
ATOM      7  N   UNL     1      25.588   0.751  52.422  1.00  0.00    -0.321 N 
ATOM      8  C   UNL     1      26.490   0.599  53.460  1.00  0.00     0.247 C 
ATOM      9  O   UNL     1      26.671   1.324  54.430  1.00  0.00    -0.270 OA
ATOM     10  H   UNL     1      25.831   0.309  51.544  1.00  0.00     0.170 HD
BRANCH   8  11
ATOM     11  C   UNL     1      27.366  -0.594  53.230  1.00  0.00     0.064 C 
ATOM     12  C   UNL     1      28.634  -0.614  53.657  1.00  0.00     0.014 C 
ENDBRANCH   8  11
ENDBRANCH   1   7
BRANCH   6  13
ATOM     13  N   UNL     1      22.753   0.010  52.745  1.00  0.00    -0.372 N 
ATOM     14  C   UNL     1      23.073  -0.609  54.040  1.00  0.00     0.143 C 
BRANCH  13  15
ATOM     15  C   UNL     1      21.371  -0.185  52.257  1.00  0.00     0.131 C 
BRANCH  15  16
ATOM     16  C   UNL     1      20.397  -0.477  53.421  1.00  0.00     0.105 C 
BRANCH  16  17
ATOM     17  N   UNL     1      18.968  -0.329  53.053  1.00  0.00    -0.308 NA
ATOM     18  C   UNL     1      18.241  -1.564  53.386  1.00  0.00     0.105 C 
ATOM     19  C   UNL     1      18.811  -0.037  51.623  1.00  0.00     0.105 C 
ENDBRANCH  16  17
ENDBRANCH  15  16
ENDBRANCH  13  15
ENDBRANCH   6  13
BRANCH   3  20
ATOM     20  N   UNL     1      24.256   5.325  51.514  1.00  0.00    -0.321 N 
ATOM     21  H   UNL     1      23.895   6.037  52.136  1.00  0.00     0.170 HD
BRANCH  20  22
ATOM     22  C   UNL     1      24.479   5.885  50.255  1.00  0.00     0.227 A 
ATOM     23  N   UNL     1      23.511   5.940  49.325  1.00  0.00    -0.221 NA
ATOM     24  N   UNL     1      25.701   6.411  50.087  1.00  0.00    -0.213 NA
ATOM     25  C   UNL     1      23.815   6.553  48.165  1.00  0.00     0.117 A 
ATOM     26  C   UNL     1      25.977   7.017  48.909  1.00  0.00     0.078 A 
ATOM     27  C   UNL     1      25.046   7.105  47.900  1.00  0.00     0.049 A 
BRANCH  26  28
ATOM     28  C   UNL     1      27.330   7.562  48.791  1.00  0.00     0.026 A 
ATOM     29  C   UNL     1      27.578   8.910  48.989  1.00  0.00     0.096 A 
ATOM     30  C   UNL     1      28.601   6.961  48.464  1.00  0.00     0.009 A 
ATOM     31  N   UNL     1      28.912   9.141  48.841  1.00  0.00    -0.350 N 
ATOM     32  C   UNL     1      29.040   5.661  48.108  1.00  0.00     0.011 A 
ATOM     33  C   UNL     1      29.570   7.974  48.528  1.00  0.00     0.048 A 
ATOM     34  C   UNL     1      30.399   5.411  47.873  1.00  0.00     0.001 A 
ATOM     35  C   UNL     1      30.936   7.735  48.288  1.00  0.00     0.027 A 
ATOM     36  C   UNL     1      31.334   6.434  47.970  1.00  0.00     0.002 A 
ATOM     37  C   UNL     1      29.535  10.441  48.967  1.00  0.00     0.149 C 
ENDBRANCH  26  28
ENDBRANCH  20  22
ENDBRANCH   3  20
BRANCH   4  38
ATOM     38  O   UNL     1      21.641   4.659  52.068  1.00  0.00    -0.494 OA
ATOM     39  C   UNL     1      20.467   4.132  51.435  1.00  0.00     0.278 C 
ENDBRANCH   4  38
TORSDOF 10
ENDMDL
MODEL 14
REMARK VINA RESULT:    -8.248      1.597      2.295
REMARK INTER + INTRA:         -14.589
REMARK INTER:                 -12.967
REMARK INTRA:                  -1.622
REMARK UNBOUND:                -1.519
REMARK SMILES C=CC(=O)Nc1cc(Nc2nccc(-c3cn(C)c4ccccc34)n2)c(OC)cc1N(C)CCN(C)C
REMARK SMILES IDX 6 1 7 2 8 3 26 4 29 5 30 6 5 7 3 8 4 9 2 11 1 12 31 13 32 14
REMARK SMILES IDX 33 15 34 16 35 17 36 18 37 19 9 20 10 22 11 23 25 24 12 25
REMARK SMILES IDX 14 26 13 27 15 28 16 29 24 30 17 31 23 32 19 33 22 34 20 35
REMARK SMILES IDX 21 36 18 37 27 38 28 39
REMARK H PARENT 5 10 9 21
ROOT
ATOM      1  C   UNL     1      28.014   6.017  48.401  1.00  0.00     0.067 A 
ATOM      2  C   UNL     1      27.393   4.927  49.047  1.00  0.00     0.058 A 
ATOM      3  C   UNL     1      26.216   5.086  49.779  1.00  0.00     0.086 A 
ATOM      4  C   UNL     1      25.695   6.383  49.890  1.00  0.00     0.144 A 
ATOM      5  C   UNL     1      26.300   7.481  49.279  1.00  0.00     0.076 A 
ATOM      6  C   UNL     1      27.494   7.328  48.554  1.00  0.00     0.064 A 
ENDROOT
BRANCH   1   7
ATOM      7  N   UNL     1      29.183   5.707  47.663  1.00  0.00    -0.321 N 
ATOM      8  C   UNL     1      30.439   5.437  48.176  1.00  0.00     0.247 C 
ATOM      9  O   UNL     1      30.846   5.577  49.323  1.00  0.00    -0.270 OA
ATOM     10  H   UNL     1      29.133   5.908  46.672  1.00  0.00     0.170 HD
BRANCH   8  11
ATOM     11  C   UNL     1      31.372   4.998  47.089  1.00  0.00     0.064 C 
ATOM     12  C   UNL     1      32.068   3.861  47.192  1.00  0.00     0.014 C 
ENDBRANCH   8  11
ENDBRANCH   1   7
BRANCH   6  13
ATOM     13  N   UNL     1      28.237   8.458  48.137  1.00  0.00    -0.372 N 
ATOM     14  C   UNL     1      27.548   9.342  47.185  1.00  0.00     0.143 C 
BRANCH  13  15
ATOM     15  C   UNL     1      28.893   9.124  49.283  1.00  0.00     0.131 C 
BRANCH  15  16
ATOM     16  C   UNL     1      30.433   9.079  49.154  1.00  0.00     0.105 C 
BRANCH  16  17
ATOM     17  N   UNL     1      31.031  10.363  48.713  1.00  0.00    -0.308 NA
ATOM     18  C   UNL     1      30.091  11.463  48.976  1.00  0.00     0.105 C 
ATOM     19  C   UNL     1      31.364  10.334  47.283  1.00  0.00     0.105 C 
ENDBRANCH  16  17
ENDBRANCH  15  16
ENDBRANCH  13  15
ENDBRANCH   6  13
BRANCH   3  20
ATOM     20  N   UNL     1      25.565   4.022  50.418  1.00  0.00    -0.321 N 
ATOM     21  H   UNL     1      26.174   3.424  50.962  1.00  0.00     0.170 HD
BRANCH  20  22
ATOM     22  C   UNL     1      24.422   3.306  50.057  1.00  0.00     0.227 A 
ATOM     23  N   UNL     1      23.906   3.378  48.818  1.00  0.00    -0.221 NA
ATOM     24  N   UNL     1      23.937   2.508  51.018  1.00  0.00    -0.213 NA
ATOM     25  C   UNL     1      22.836   2.602  48.559  1.00  0.00     0.117 A 
ATOM     26  C   UNL     1      22.858   1.745  50.728  1.00  0.00     0.078 A 
ATOM     27  C   UNL     1      22.263   1.768  49.489  1.00  0.00     0.049 A 
BRANCH  26  28
ATOM     28  C   UNL     1      22.377   0.903  51.826  1.00  0.00     0.026 A 
ATOM     29  C   UNL     1      21.029   0.631  51.980  1.00  0.00     0.096 A 
ATOM     30  C   UNL     1      23.052   0.235  52.912  1.00  0.00     0.009 A 
ATOM     31  N   UNL     1      20.863  -0.185  53.059  1.00  0.00    -0.350 N 
ATOM     32  C   UNL     1      24.393   0.146  53.364  1.00  0.00     0.011 A 
ATOM     33  C   UNL     1      22.076  -0.454  53.649  1.00  0.00     0.048 A 
ATOM     34  C   UNL     1      24.715  -0.640  54.479  1.00  0.00     0.001 A 
ATOM     35  C   UNL     1      22.387  -1.240  54.773  1.00  0.00     0.027 A 
ATOM     36  C   UNL     1      23.724  -1.329  55.169  1.00  0.00     0.002 A 
ATOM     37  C   UNL     1      19.583  -0.669  53.528  1.00  0.00     0.149 C 
ENDBRANCH  26  28
ENDBRANCH  20  22
ENDBRANCH   3  20
BRANCH   4  38
ATOM     38  O   UNL     1      24.559   6.578  50.637  1.00  0.00    -0.494 OA
ATOM     39  C   UNL     1      23.476   6.986  49.790  1.00  0.00     0.278 C 
ENDBRANCH   4  38
TORSDOF 10
ENDMDL
MODEL 15
REMARK VINA RESULT:    -8.185      1.694      2.631
REMARK INTER + INTRA:         -14.490
REMARK INTER:                 -12.898
REMARK INTRA:                  -1.592
REMARK UNBOUND:                -1.519
REMARK SMILES C=CC(=O)Nc1cc(Nc2nccc(-c3cn(C)c4ccccc34)n2)c(OC)cc1N(C)CCN(C)C
REMARK SMILES IDX 6 1 7 2 8 3 26 4 29 5 30 6 5 7 3 8 4 9 2 11 1 12 31 13 32 14
REMARK SMILES IDX 33 15 34 16 35 17 36 18 37 19 9 20 10 22 11 23 25 24 12 25
REMARK SMILES IDX 14 26 13 27 15 28 16 29 24 30 17 31 23 32 19 33 22 34 20 35
REMARK SMILES IDX 21 36 18 37 27 38 28 39
REMARK H PARENT 5 10 9 21
ROOT
ATOM      1  C   UNL     1      28.609   6.234  47.931  1.00  0.00     0.067 A 
ATOM      2  C   UNL     1      27.818   5.565  48.889  1.00  0.00     0.058 A 
ATOM      3  C   UNL     1      26.549   6.027  49.239  1.00  0.00     0.086 A 
ATOM      4  C   UNL     1      26.105   7.212  48.635  1.00  0.00     0.144 A 
ATOM      5  C   UNL     1      26.874   7.903  47.699  1.00  0.00     0.076 A 
ATOM      6  C   UNL     1      28.160   7.449  47.357  1.00  0.00     0.064 A 
ENDROOT
BRANCH   1   7
ATOM      7  N   UNL     1      29.861   5.635  47.646  1.00  0.00    -0.321 N 
ATOM      8  C   UNL     1      31.011   5.712  48.413  1.00  0.00     0.247 C 
ATOM      9  O   UNL     1      31.243   6.434  49.375  1.00  0.00    -0.270 OA
ATOM     10  H   UNL     1      29.973   5.300  46.697  1.00  0.00     0.170 HD
BRANCH   8  11
ATOM     11  C   UNL     1      32.076   4.816  47.861  1.00  0.00     0.064 C 
ATOM     12  C   UNL     1      31.778   3.829  47.009  1.00  0.00     0.014 C 
ENDBRANCH   8  11
ENDBRANCH   1   7
BRANCH   6  13
ATOM     13  N   UNL     1      29.035   8.264  46.599  1.00  0.00    -0.372 N 
ATOM     14  C   UNL     1      28.752   8.313  45.157  1.00  0.00     0.143 C 
BRANCH  13  15
ATOM     15  C   UNL     1      29.267   9.566  47.260  1.00  0.00     0.131 C 
BRANCH  15  16
ATOM     16  C   UNL     1      30.628   9.592  47.992  1.00  0.00     0.105 C 
BRANCH  16  17
ATOM     17  N   UNL     1      31.282  10.924  47.985  1.00  0.00    -0.308 NA
ATOM     18  C   UNL     1      30.728  11.754  49.065  1.00  0.00     0.105 C 
ATOM     19  C   UNL     1      31.095  11.605  46.698  1.00  0.00     0.105 C 
ENDBRANCH  16  17
ENDBRANCH  15  16
ENDBRANCH  13  15
ENDBRANCH   6  13
BRANCH   3  20
ATOM     20  N   UNL     1      25.730   5.379  50.174  1.00  0.00    -0.321 N 
ATOM     21  H   UNL     1      26.146   5.272  51.091  1.00  0.00     0.170 HD
BRANCH  20  22
ATOM     22  C   UNL     1      24.745   4.406  50.000  1.00  0.00     0.227 A 
ATOM     23  N   UNL     1      23.930   4.409  48.933  1.00  0.00    -0.221 NA
ATOM     24  N   UNL     1      24.731   3.451  50.942  1.00  0.00    -0.213 NA
ATOM     25  C   UNL     1      23.053   3.391  48.833  1.00  0.00     0.117 A 
ATOM     26  C   UNL     1      23.835   2.445  50.816  1.00  0.00     0.078 A 
ATOM     27  C   UNL     1      22.958   2.381  49.759  1.00  0.00     0.049 A 
BRANCH  26  28
ATOM     28  C   UNL     1      23.872   1.443  51.882  1.00  0.00     0.026 A 
ATOM     29  C   UNL     1      25.072   0.920  52.332  1.00  0.00     0.096 A 
ATOM     30  C   UNL     1      22.835   0.788  52.643  1.00  0.00     0.009 A 
ATOM     31  N   UNL     1      24.821   0.032  53.334  1.00  0.00    -0.350 N 
ATOM     32  C   UNL     1      21.418   0.819  52.652  1.00  0.00     0.011 A 
ATOM     33  C   UNL     1      23.467  -0.071  53.557  1.00  0.00     0.048 A 
ATOM     34  C   UNL     1      20.697   0.047  53.574  1.00  0.00     0.001 A 
ATOM     35  C   UNL     1      22.753  -0.854  54.481  1.00  0.00     0.027 A 
ATOM     36  C   UNL     1      21.358  -0.773  54.481  1.00  0.00     0.002 A 
ATOM     37  C   UNL     1      25.840  -0.718  54.036  1.00  0.00     0.149 C 
ENDBRANCH  26  28
ENDBRANCH  20  22
ENDBRANCH   3  20
BRANCH   4  38
ATOM     38  O   UNL     1      24.875   7.714  48.987  1.00  0.00    -0.494 OA
ATOM     39  C   UNL     1      24.891   9.146  48.925  1.00  0.00     0.278 C 
ENDBRANCH   4  38
TORSDOF 10
ENDMDL
MODEL 16
REMARK VINA RESULT:    -8.152      1.838      3.059
REMARK INTER + INTRA:         -14.437
REMARK INTER:                 -12.947
REMARK INTRA:                  -1.490
REMARK UNBOUND:                -1.519
REMARK SMILES C=CC(=O)Nc1cc(Nc2nccc(-c3cn(C)c4ccccc34)n2)c(OC)cc1N(C)CCN(C)C
REMARK SMILES IDX 6 1 7 2 8 3 26 4 29 5 30 6 5 7 3 8 4 9 2 11 1 12 31 13 32 14
REMARK SMILES IDX 33 15 34 16 35 17 36 18 37 19 9 20 10 22 11 23 25 24 12 25
REMARK SMILES IDX 14 26 13 27 15 28 16 29 24 30 17 31 23 32 19 33 22 34 20 35
REMARK SMILES IDX 21 36 18 37 27 38 28 39
REMARK H PARENT 5 10 9 21
ROOT
ATOM      1  C   UNL     1      27.756   7.161  48.574  1.00  0.00     0.067 A 
ATOM      2  C   UNL     1      26.891   6.114  48.957  1.00  0.00     0.058 A 
ATOM      3  C   UNL     1      25.542   6.114  48.602  1.00  0.00     0.086 A 
ATOM      4  C   UNL     1      25.063   7.222  47.887  1.00  0.00     0.144 A 
ATOM      5  C   UNL     1      25.892   8.279  47.513  1.00  0.00     0.076 A 
ATOM      6  C   UNL     1      27.248   8.290  47.883  1.00  0.00     0.064 A 
ENDROOT
BRANCH   1   7
ATOM      7  N   UNL     1      29.108   7.014  48.972  1.00  0.00    -0.321 N 
ATOM      8  C   UNL     1      29.982   6.014  48.583  1.00  0.00     0.247 C 
ATOM      9  O   UNL     1      29.739   4.978  47.978  1.00  0.00    -0.270 OA
ATOM     10  H   UNL     1      29.386   7.572  49.770  1.00  0.00     0.170 HD
BRANCH   8  11
ATOM     11  C   UNL     1      31.364   6.293  49.088  1.00  0.00     0.064 C 
ATOM     12  C   UNL     1      31.807   7.547  49.233  1.00  0.00     0.014 C 
ENDBRANCH   8  11
ENDBRANCH   1   7
BRANCH   6  13
ATOM     13  N   UNL     1      28.033   9.457  47.719  1.00  0.00    -0.372 N 
ATOM     14  C   UNL     1      27.967  10.072  46.385  1.00  0.00     0.143 C 
BRANCH  13  15
ATOM     15  C   UNL     1      27.876  10.377  48.866  1.00  0.00     0.131 C 
BRANCH  15  16
ATOM     16  C   UNL     1      27.311  11.744  48.420  1.00  0.00     0.105 C 
BRANCH  16  17
ATOM     17  N   UNL     1      28.104  12.902  48.899  1.00  0.00    -0.308 NA
ATOM     18  C   UNL     1      28.026  13.995  47.918  1.00  0.00     0.105 C 
ATOM     19  C   UNL     1      29.509  12.536  49.114  1.00  0.00     0.105 C 
ENDBRANCH  16  17
ENDBRANCH  15  16
ENDBRANCH  13  15
ENDBRANCH   6  13
BRANCH   3  20
ATOM     20  N   UNL     1      24.660   5.083  48.951  1.00  0.00    -0.321 N 
ATOM     21  H   UNL     1      24.147   4.689  48.173  1.00  0.00     0.170 HD
BRANCH  20  22
ATOM     22  C   UNL     1      23.950   4.855  50.131  1.00  0.00     0.227 A 
ATOM     23  N   UNL     1      23.087   5.760  50.623  1.00  0.00    -0.221 NA
ATOM     24  N   UNL     1      24.153   3.649  50.680  1.00  0.00    -0.213 NA
ATOM     25  C   UNL     1      22.411   5.414  51.735  1.00  0.00     0.117 A 
ATOM     26  C   UNL     1      23.462   3.334  51.800  1.00  0.00     0.078 A 
ATOM     27  C   UNL     1      22.569   4.208  52.374  1.00  0.00     0.049 A 
BRANCH  26  28
ATOM     28  C   UNL     1      23.739   2.005  52.349  1.00  0.00     0.026 A 
ATOM     29  C   UNL     1      22.727   1.229  52.888  1.00  0.00     0.096 A 
ATOM     30  C   UNL     1      24.954   1.241  52.491  1.00  0.00     0.009 A 
ATOM     31  N   UNL     1      23.252   0.043  53.303  1.00  0.00    -0.350 N 
ATOM     32  C   UNL     1      26.324   1.461  52.200  1.00  0.00     0.011 A 
ATOM     33  C   UNL     1      24.608   0.009  53.071  1.00  0.00     0.048 A 
ATOM     34  C   UNL     1      27.273   0.459  52.451  1.00  0.00     0.001 A 
ATOM     35  C   UNL     1      25.552  -1.000  53.332  1.00  0.00     0.027 A 
ATOM     36  C   UNL     1      26.888  -0.758  53.003  1.00  0.00     0.002 A 
ATOM     37  C   UNL     1      22.488  -1.016  53.928  1.00  0.00     0.149 C 
ENDBRANCH  26  28
ENDBRANCH  20  22
ENDBRANCH   3  20
BRANCH   4  38
ATOM     38  O   UNL     1      23.731   7.270  47.557  1.00  0.00    -0.494 OA
ATOM     39  C   UNL     1      23.128   8.448  48.109  1.00  0.00     0.278 C 
ENDBRANCH   4  38
TORSDOF 10
ENDMDL
MODEL 17
REMARK VINA RESULT:    -8.094      2.059      3.889
REMARK INTER + INTRA:         -14.346
REMARK INTER:                 -12.602
REMARK INTRA:                  -1.744
REMARK UNBOUND:                -1.519
REMARK SMILES C=CC(=O)Nc1cc(Nc2nccc(-c3cn(C)c4ccccc34)n2)c(OC)cc1N(C)CCN(C)C
REMARK SMILES IDX 6 1 7 2 8 3 26 4 29 5 30 6 5 7 3 8 4 9 2 11 1 12 31 13 32 14
REMARK SMILES IDX 33 15 34 16 35 17 36 18 37 19 9 20 10 22 11 23 25 24 12 25
REMARK SMILES IDX 14 26 13 27 15 28 16 29 24 30 17 31 23 32 19 33 22 34 20 35
REMARK SMILES IDX 21 36 18 37 27 38 28 39
REMARK H PARENT 5 10 9 21
ROOT
ATOM      1  C   UNL     1      29.799   6.462  47.504  1.00  0.00     0.067 A 
ATOM      2  C   UNL     1      28.782   6.099  48.412  1.00  0.00     0.058 A 
ATOM      3  C   UNL     1      27.688   6.929  48.654  1.00  0.00     0.086 A 
ATOM      4  C   UNL     1      27.658   8.166  47.993  1.00  0.00     0.144 A 
ATOM      5  C   UNL     1      28.660   8.558  47.105  1.00  0.00     0.076 A 
ATOM      6  C   UNL     1      29.772   7.731  46.871  1.00  0.00     0.064 A 
ENDROOT
BRANCH   1   7
ATOM      7  N   UNL     1      30.832   5.508  47.328  1.00  0.00    -0.321 N 
ATOM      8  C   UNL     1      31.663   4.996  48.309  1.00  0.00     0.247 C 
ATOM      9  O   UNL     1      31.803   5.370  49.467  1.00  0.00    -0.270 OA
ATOM     10  H   UNL     1      31.117   5.353  46.369  1.00  0.00     0.170 HD
BRANCH   8  11
ATOM     11  C   UNL     1      32.517   3.896  47.758  1.00  0.00     0.064 C 
ATOM     12  C   UNL     1      32.301   3.399  46.535  1.00  0.00     0.014 C 
ENDBRANCH   8  11
ENDBRANCH   1   7
BRANCH   6  13
ATOM     13  N   UNL     1      30.899   8.217  46.166  1.00  0.00    -0.372 N 
ATOM     14  C   UNL     1      30.831   8.073  44.705  1.00  0.00     0.143 C 
BRANCH  13  15
ATOM     15  C   UNL     1      31.318   9.543  46.670  1.00  0.00     0.131 C 
BRANCH  15  16
ATOM     16  C   UNL     1      32.578   9.436  47.558  1.00  0.00     0.105 C 
BRANCH  16  17
ATOM     17  N   UNL     1      33.478   8.317  47.183  1.00  0.00    -0.308 NA
ATOM     18  C   UNL     1      34.092   7.750  48.393  1.00  0.00     0.105 C 
ATOM     19  C   UNL     1      34.530   8.763  46.262  1.00  0.00     0.105 C 
ENDBRANCH  16  17
ENDBRANCH  15  16
ENDBRANCH  13  15
ENDBRANCH   6  13
BRANCH   3  20
ATOM     20  N   UNL     1      26.653   6.592  49.537  1.00  0.00    -0.321 N 
ATOM     21  H   UNL     1      26.861   6.766  50.511  1.00  0.00     0.170 HD
BRANCH  20  22
ATOM     22  C   UNL     1      25.665   5.611  49.447  1.00  0.00     0.227 A 
ATOM     23  N   UNL     1      24.643   5.714  48.580  1.00  0.00    -0.221 NA
ATOM     24  N   UNL     1      25.860   4.547  50.240  1.00  0.00    -0.213 NA
ATOM     25  C   UNL     1      23.777   4.683  48.534  1.00  0.00     0.117 A 
ATOM     26  C   UNL     1      24.970   3.531  50.174  1.00  0.00     0.078 A 
ATOM     27  C   UNL     1      23.891   3.564  49.322  1.00  0.00     0.049 A 
BRANCH  26  28
ATOM     28  C   UNL     1      25.241   2.406  51.071  1.00  0.00     0.026 A 
ATOM     29  C   UNL     1      26.538   2.009  51.347  1.00  0.00     0.096 A 
ATOM     30  C   UNL     1      24.378   1.508  51.800  1.00  0.00     0.009 A 
ATOM     31  N   UNL     1      26.504   0.963  52.220  1.00  0.00    -0.350 N 
ATOM     32  C   UNL     1      22.977   1.330  51.919  1.00  0.00     0.011 A 
ATOM     33  C   UNL     1      25.204   0.633  52.525  1.00  0.00     0.048 A 
ATOM     34  C   UNL     1      22.457   0.340  52.765  1.00  0.00     0.001 A 
ATOM     35  C   UNL     1      24.692  -0.367  53.371  1.00  0.00     0.027 A 
ATOM     36  C   UNL     1      23.305  -0.491  53.487  1.00  0.00     0.002 A 
ATOM     37  C   UNL     1      27.676   0.280  52.724  1.00  0.00     0.149 C 
ENDBRANCH  26  28
ENDBRANCH  20  22
ENDBRANCH   3  20
BRANCH   4  38
ATOM     38  O   UNL     1      26.613   9.022  48.240  1.00  0.00    -0.494 OA
ATOM     39  C   UNL     1      27.089  10.203  48.900  1.00  0.00     0.278 C 
ENDBRANCH   4  38
TORSDOF 10
ENDMDL
MODEL 18
REMARK VINA RESULT:    -8.054      1.633      2.722
REMARK INTER + INTRA:         -14.281
REMARK INTER:                 -13.152
REMARK INTRA:                  -1.129
REMARK UNBOUND:                -1.519
REMARK SMILES C=CC(=O)Nc1cc(Nc2nccc(-c3cn(C)c4ccccc34)n2)c(OC)cc1N(C)CCN(C)C
REMARK SMILES IDX 6 1 7 2 8 3 26 4 29 5 30 6 5 7 3 8 4 9 2 11 1 12 31 13 32 14
REMARK SMILES IDX 33 15 34 16 35 17 36 18 37 19 9 20 10 22 11 23 25 24 12 25
REMARK SMILES IDX 14 26 13 27 15 28 16 29 24 30 17 31 23 32 19 33 22 34 20 35
REMARK SMILES IDX 21 36 18 37 27 38 28 39
REMARK H PARENT 5 10 9 21
ROOT
ATOM      1  C   UNL     1      29.457   6.336  48.138  1.00  0.00     0.067 A 
ATOM      2  C   UNL     1      28.268   5.597  48.316  1.00  0.00     0.058 A 
ATOM      3  C   UNL     1      27.054   6.224  48.598  1.00  0.00     0.086 A 
ATOM      4  C   UNL     1      27.067   7.619  48.745  1.00  0.00     0.144 A 
ATOM      5  C   UNL     1      28.231   8.371  48.593  1.00  0.00     0.076 A 
ATOM      6  C   UNL     1      29.459   7.741  48.325  1.00  0.00     0.064 A 
ENDROOT
BRANCH   1   7
ATOM      7  N   UNL     1      30.609   5.574  47.821  1.00  0.00    -0.321 N 
ATOM      8  C   UNL     1      31.597   5.162  48.697  1.00  0.00     0.247 C 
ATOM      9  O   UNL     1      31.781   5.502  49.859  1.00  0.00    -0.270 OA
ATOM     10  H   UNL     1      30.825   5.511  46.833  1.00  0.00     0.170 HD
BRANCH   8  11
ATOM     11  C   UNL     1      32.562   4.244  48.013  1.00  0.00     0.064 C 
ATOM     12  C   UNL     1      32.222   3.589  46.897  1.00  0.00     0.014 C 
ENDBRANCH   8  11
ENDBRANCH   1   7
BRANCH   6  13
ATOM     13  N   UNL     1      30.674   8.462  48.406  1.00  0.00    -0.372 N 
ATOM     14  C   UNL     1      31.333   8.724  47.119  1.00  0.00     0.143 C 
BRANCH  13  15
ATOM     15  C   UNL     1      30.554   9.618  49.321  1.00  0.00     0.131 C 
BRANCH  15  16
ATOM     16  C   UNL     1      30.831  10.949  48.586  1.00  0.00     0.105 C 
BRANCH  16  17
ATOM     17  N   UNL     1      29.606  11.621  48.088  1.00  0.00    -0.308 NA
ATOM     18  C   UNL     1      29.943  12.478  46.942  1.00  0.00     0.105 C 
ATOM     19  C   UNL     1      28.975  12.431  49.138  1.00  0.00     0.105 C 
ENDBRANCH  16  17
ENDBRANCH  15  16
ENDBRANCH  13  15
ENDBRANCH   6  13
BRANCH   3  20
ATOM     20  N   UNL     1      25.852   5.522  48.765  1.00  0.00    -0.321 N 
ATOM     21  H   UNL     1      25.242   5.539  47.958  1.00  0.00     0.170 HD
BRANCH  20  22
ATOM     22  C   UNL     1      25.092   5.281  49.910  1.00  0.00     0.227 A 
ATOM     23  N   UNL     1      24.216   6.185  50.380  1.00  0.00    -0.221 NA
ATOM     24  N   UNL     1      25.264   4.065  50.448  1.00  0.00    -0.213 NA
ATOM     25  C   UNL     1      23.491   5.827  51.458  1.00  0.00     0.117 A 
ATOM     26  C   UNL     1      24.525   3.738  51.533  1.00  0.00     0.078 A 
ATOM     27  C   UNL     1      23.615   4.610  52.083  1.00  0.00     0.049 A 
BRANCH  26  28
ATOM     28  C   UNL     1      24.769   2.398  52.072  1.00  0.00     0.026 A 
ATOM     29  C   UNL     1      26.041   1.850  52.075  1.00  0.00     0.096 A 
ATOM     30  C   UNL     1      23.898   1.402  52.645  1.00  0.00     0.009 A 
ATOM     31  N   UNL     1      25.988   0.615  52.647  1.00  0.00    -0.350 N 
ATOM     32  C   UNL     1      22.504   1.299  52.886  1.00  0.00     0.011 A 
ATOM     33  C   UNL     1      24.698   0.309  53.015  1.00  0.00     0.048 A 
ATOM     34  C   UNL     1      21.974   0.160  53.507  1.00  0.00     0.001 A 
ATOM     35  C   UNL     1      24.176  -0.841  53.632  1.00  0.00     0.027 A 
ATOM     36  C   UNL     1      22.802  -0.893  53.882  1.00  0.00     0.002 A 
ATOM     37  C   UNL     1      27.130  -0.259  52.811  1.00  0.00     0.149 C 
ENDBRANCH  26  28
ENDBRANCH  20  22
ENDBRANCH   3  20
BRANCH   4  38
ATOM     38  O   UNL     1      25.895   8.261  49.061  1.00  0.00    -0.494 OA
ATOM     39  C   UNL     1      26.164   9.401  49.887  1.00  0.00     0.278 C 
ENDBRANCH   4  38
TORSDOF 10
ENDMDL
MODEL 19
REMARK VINA RESULT:    -8.053      3.079      5.898
REMARK INTER + INTRA:         -14.281
REMARK INTER:                 -12.674
REMARK INTRA:                  -1.606
REMARK UNBOUND:                -1.519
REMARK SMILES C=CC(=O)Nc1cc(Nc2nccc(-c3cn(C)c4ccccc34)n2)c(OC)cc1N(C)CCN(C)C
REMARK SMILES IDX 6 1 7 2 8 3 26 4 29 5 30 6 5 7 3 8 4 9 2 11 1 12 31 13 32 14
REMARK SMILES IDX 33 15 34 16 35 17 36 18 37 19 9 20 10 22 11 23 25 24 12 25
REMARK SMILES IDX 14 26 13 27 15 28 16 29 24 30 17 31 23 32 19 33 22 34 20 35
REMARK SMILES IDX 21 36 18 37 27 38 28 39
REMARK H PARENT 5 10 9 21
ROOT
ATOM      1  C   UNL     1      23.688   4.363  49.140  1.00  0.00     0.067 A 
ATOM      2  C   UNL     1      23.563   3.801  50.429  1.00  0.00     0.058 A 
ATOM      3  C   UNL     1      22.321   3.439  50.950  1.00  0.00     0.086 A 
ATOM      4  C   UNL     1      21.191   3.697  50.162  1.00  0.00     0.144 A 
ATOM      5  C   UNL     1      21.284   4.269  48.894  1.00  0.00     0.076 A 
ATOM      6  C   UNL     1      22.532   4.650  48.372  1.00  0.00     0.064 A 
ENDROOT
BRANCH   1   7
ATOM      7  N   UNL     1      25.012   4.650  48.723  1.00  0.00    -0.321 N 
ATOM      8  C   UNL     1      25.883   5.557  49.299  1.00  0.00     0.247 C 
ATOM      9  O   UNL     1      25.653   6.408  50.150  1.00  0.00    -0.270 OA
ATOM     10  H   UNL     1      25.255   4.312  47.801  1.00  0.00     0.170 HD
BRANCH   8  11
ATOM     11  C   UNL     1      27.240   5.459  48.673  1.00  0.00     0.064 C 
ATOM     12  C   UNL     1      27.857   6.540  48.185  1.00  0.00     0.014 C 
ENDBRANCH   8  11
ENDBRANCH   1   7
BRANCH   6  13
ATOM     13  N   UNL     1      22.614   5.442  47.201  1.00  0.00    -0.372 N 
ATOM     14  C   UNL     1      21.780   4.988  46.080  1.00  0.00     0.143 C 
BRANCH  13  15
ATOM     15  C   UNL     1      22.544   6.884  47.520  1.00  0.00     0.131 C 
BRANCH  15  16
ATOM     16  C   UNL     1      23.800   7.634  47.022  1.00  0.00     0.105 C 
BRANCH  16  17
ATOM     17  N   UNL     1      24.313   8.641  47.983  1.00  0.00    -0.308 NA
ATOM     18  C   UNL     1      23.185   9.368  48.587  1.00  0.00     0.105 C 
ATOM     19  C   UNL     1      25.216   9.595  47.327  1.00  0.00     0.105 C 
ENDBRANCH  16  17
ENDBRANCH  15  16
ENDBRANCH  13  15
ENDBRANCH   6  13
BRANCH   3  20
ATOM     20  N   UNL     1      22.164   2.864  52.219  1.00  0.00    -0.321 N 
ATOM     21  H   UNL     1      22.056   3.532  52.971  1.00  0.00     0.170 HD
BRANCH  20  22
ATOM     22  C   UNL     1      22.646   1.662  52.739  1.00  0.00     0.227 A 
ATOM     23  N   UNL     1      21.827   0.634  53.019  1.00  0.00    -0.221 NA
ATOM     24  N   UNL     1      23.979   1.605  52.867  1.00  0.00    -0.213 NA
ATOM     25  C   UNL     1      22.404  -0.500  53.462  1.00  0.00     0.117 A 
ATOM     26  C   UNL     1      24.528   0.453  53.319  1.00  0.00     0.078 A 
ATOM     27  C   UNL     1      23.759  -0.641  53.640  1.00  0.00     0.049 A 
BRANCH  26  28
ATOM     28  C   UNL     1      25.987   0.464  53.441  1.00  0.00     0.026 A 
ATOM     29  C   UNL     1      26.669   1.627  53.752  1.00  0.00     0.096 A 
ATOM     30  C   UNL     1      26.988  -0.562  53.277  1.00  0.00     0.009 A 
ATOM     31  N   UNL     1      28.002   1.353  53.822  1.00  0.00    -0.350 N 
ATOM     32  C   UNL     1      26.978  -1.933  52.917  1.00  0.00     0.011 A 
ATOM     33  C   UNL     1      28.235   0.025  53.546  1.00  0.00     0.048 A 
ATOM     34  C   UNL     1      28.173  -2.665  52.878  1.00  0.00     0.001 A 
ATOM     35  C   UNL     1      29.440  -0.698  53.503  1.00  0.00     0.027 A 
ATOM     36  C   UNL     1      29.387  -2.055  53.175  1.00  0.00     0.002 A 
ATOM     37  C   UNL     1      29.024   2.334  54.117  1.00  0.00     0.149 C 
ENDBRANCH  26  28
ENDBRANCH  20  22
ENDBRANCH   3  20
BRANCH   4  38
ATOM     38  O   UNL     1      19.950   3.387  50.664  1.00  0.00    -0.494 OA
ATOM     39  C   UNL     1      19.000   4.391  50.285  1.00  0.00     0.278 C 
ENDBRANCH   4  38
TORSDOF 10
ENDMDL
MODEL 20
REMARK VINA RESULT:    -8.004      2.106      5.044
REMARK INTER + INTRA:         -14.202
REMARK INTER:                 -12.785
REMARK INTRA:                  -1.417
REMARK UNBOUND:                -1.519
REMARK SMILES C=CC(=O)Nc1cc(Nc2nccc(-c3cn(C)c4ccccc34)n2)c(OC)cc1N(C)CCN(C)C
REMARK SMILES IDX 6 1 7 2 8 3 26 4 29 5 30 6 5 7 3 8 4 9 2 11 1 12 31 13 32 14
REMARK SMILES IDX 33 15 34 16 35 17 36 18 37 19 9 20 10 22 11 23 25 24 12 25
REMARK SMILES IDX 14 26 13 27 15 28 16 29 24 30 17 31 23 32 19 33 22 34 20 35
REMARK SMILES IDX 21 36 18 37 27 38 28 39
REMARK H PARENT 5 10 9 21
ROOT
ATOM      1  C   UNL     1      28.693   8.511  47.754  1.00  0.00     0.067 A 
ATOM      2  C   UNL     1      28.008   7.292  47.942  1.00  0.00     0.058 A 
ATOM      3  C   UNL     1      28.680   6.124  48.301  1.00  0.00     0.086 A 
ATOM      4  C   UNL     1      30.076   6.195  48.424  1.00  0.00     0.144 A 
ATOM      5  C   UNL     1      30.779   7.382  48.226  1.00  0.00     0.076 A 
ATOM      6  C   UNL     1      30.107   8.557  47.848  1.00  0.00     0.064 A 
ENDROOT
BRANCH   1   7
ATOM      7  N   UNL     1      27.881   9.625  47.427  1.00  0.00    -0.321 N 
ATOM      8  C   UNL     1      27.452  10.619  48.289  1.00  0.00     0.247 C 
ATOM      9  O   UNL     1      27.526  10.659  49.511  1.00  0.00    -0.270 OA
ATOM     10  H   UNL     1      27.408   9.566  46.534  1.00  0.00     0.170 HD
BRANCH   8  11
ATOM     11  C   UNL     1      26.747  11.705  47.536  1.00  0.00     0.064 C 
ATOM     12  C   UNL     1      25.970  11.425  46.484  1.00  0.00     0.014 C 
ENDBRANCH   8  11
ENDBRANCH   1   7
BRANCH   6  13
ATOM     13  N   UNL     1      30.828   9.695  47.415  1.00  0.00    -0.372 N 
ATOM     14  C   UNL     1      31.186  10.649  48.475  1.00  0.00     0.143 C 
BRANCH  13  15
ATOM     15  C   UNL     1      31.914   9.322  46.483  1.00  0.00     0.131 C 
BRANCH  15  16
ATOM     16  C   UNL     1      33.301   9.688  47.059  1.00  0.00     0.105 C 
BRANCH  16  17
ATOM     17  N   UNL     1      34.259   8.555  47.072  1.00  0.00    -0.308 NA
ATOM     18  C   UNL     1      33.808   7.516  46.133  1.00  0.00     0.105 C 
ATOM     19  C   UNL     1      34.387   7.979  48.416  1.00  0.00     0.105 C 
ENDBRANCH  16  17
ENDBRANCH  15  16
ENDBRANCH  13  15
ENDBRANCH   6  13
BRANCH   3  20
ATOM     20  N   UNL     1      28.029   4.900  48.510  1.00  0.00    -0.321 N 
ATOM     21  H   UNL     1      28.206   4.205  47.797  1.00  0.00     0.170 HD
BRANCH  20  22
ATOM     22  C   UNL     1      26.820   4.611  49.144  1.00  0.00     0.227 A 
ATOM     23  N   UNL     1      25.678   5.231  48.803  1.00  0.00    -0.221 NA
ATOM     24  N   UNL     1      26.889   3.632  50.057  1.00  0.00    -0.213 NA
ATOM     25  C   UNL     1      24.557   4.835  49.438  1.00  0.00     0.117 A 
ATOM     26  C   UNL     1      25.747   3.260  50.681  1.00  0.00     0.078 A 
ATOM     27  C   UNL     1      24.538   3.853  50.398  1.00  0.00     0.049 A 
BRANCH  26  28
ATOM     28  C   UNL     1      25.897   2.191  51.670  1.00  0.00     0.026 A 
ATOM     29  C   UNL     1      27.146   1.827  52.144  1.00  0.00     0.096 A 
ATOM     30  C   UNL     1      24.947   1.323  52.321  1.00  0.00     0.009 A 
ATOM     31  N   UNL     1      26.997   0.831  53.062  1.00  0.00    -0.350 N 
ATOM     32  C   UNL     1      23.544   1.133  52.256  1.00  0.00     0.011 A 
ATOM     33  C   UNL     1      25.669   0.501  53.202  1.00  0.00     0.048 A 
ATOM     34  C   UNL     1      22.917   0.185  53.077  1.00  0.00     0.001 A 
ATOM     35  C   UNL     1      25.051  -0.457  54.025  1.00  0.00     0.027 A 
ATOM     36  C   UNL     1      23.662  -0.594  53.955  1.00  0.00     0.002 A 
ATOM     37  C   UNL     1      28.092   0.193  53.761  1.00  0.00     0.149 C 
ENDBRANCH  26  28
ENDBRANCH  20  22
ENDBRANCH   3  20
BRANCH   4  38
ATOM     38  O   UNL     1      30.770   5.052  48.738  1.00  0.00    -0.494 OA
ATOM     39  C   UNL     1      31.645   4.694  47.660  1.00  0.00     0.278 C 
ENDBRANCH   4  38
TORSDOF 10
ENDMDL
