MODEL 1
REMARK VINA RESULT:    -8.781      0.000      0.000
REMARK INTER + INTRA:         -13.126
REMARK INTER:                 -11.861
REMARK INTRA:                  -1.265
REMARK UNBOUND:                -1.265
REMARK SMILES CCCS(=O)(=O)Nc1ccc(F)c(C(=O)c2c[nH]c3ncc(Cl)cc23)c1F
REMARK SMILES IDX 7 1 4 3 5 4 6 5 3 6 2 7 1 8 8 9 9 10 26 11 10 12 13 13 11 14
REMARK SMILES IDX 27 15 12 16 14 17 15 18 16 19 17 20 25 21 18 22 24 23 19 24
REMARK SMILES IDX 22 25 20 26 21 27 23 29
REMARK H PARENT 7 2 18 28
ROOT
ATOM      1  N   UNL     1      26.744  -0.131  52.889  1.00  0.00    -0.281 N 
ATOM      2  H   UNL     1      27.210  -0.220  51.979  1.00  0.00     0.180 HD
ENDROOT
BRANCH   1   3
ATOM      3  S   UNL     1      27.603   1.053  53.762  1.00  0.00     0.232 S 
ATOM      4  O   UNL     1      26.727   1.654  54.745  1.00  0.00    -0.207 OA
ATOM      5  O   UNL     1      28.281   1.855  52.768  1.00  0.00    -0.207 OA
BRANCH   3   6
ATOM      6  C   UNL     1      28.823   0.059  54.614  1.00  0.00     0.159 C 
BRANCH   6   7
ATOM      7  C   UNL     1      29.857  -0.553  53.678  1.00  0.00     0.015 C 
ATOM      8  C   UNL     1      29.524  -2.001  53.361  1.00  0.00     0.005 C 
ENDBRANCH   6   7
ENDBRANCH   3   6
ENDBRANCH   1   3
BRANCH   1   9
ATOM      9  C   UNL     1      25.334   0.102  52.782  1.00  0.00     0.085 A 
ATOM     10  C   UNL     1      24.465  -0.510  53.688  1.00  0.00     0.033 A 
ATOM     11  C   UNL     1      24.848   1.042  51.868  1.00  0.00     0.161 A 
ATOM     12  C   UNL     1      23.103  -0.197  53.657  1.00  0.00     0.042 A 
ATOM     13  C   UNL     1      23.498   1.368  51.857  1.00  0.00     0.096 A 
ATOM     14  C   UNL     1      22.627   0.742  52.742  1.00  0.00     0.137 A 
ATOM     15  F   UNL     1      25.702   1.624  51.012  1.00  0.00    -0.204 F 
ATOM     16  F   UNL     1      21.324   1.048  52.755  1.00  0.00    -0.206 F 
BRANCH  13  17
ATOM     17  C   UNL     1      22.985   2.358  50.911  1.00  0.00     0.201 C 
ATOM     18  O   UNL     1      22.467   1.947  49.877  1.00  0.00    -0.288 OA
BRANCH  17  19
ATOM     19  C   UNL     1      23.109   3.777  51.237  1.00  0.00     0.050 A 
ATOM     20  C   UNL     1      22.305   4.512  52.099  1.00  0.00     0.097 A 
ATOM     21  C   UNL     1      24.084   4.693  50.718  1.00  0.00     0.031 A 
ATOM     22  N   UNL     1      22.762   5.806  52.127  1.00  0.00    -0.345 N 
ATOM     23  C   UNL     1      25.164   4.610  49.816  1.00  0.00     0.035 A 
ATOM     24  C   UNL     1      23.835   5.935  51.293  1.00  0.00     0.138 A 
ATOM     25  C   UNL     1      25.893   5.772  49.572  1.00  0.00     0.060 A 
ATOM     26  N   UNL     1      24.503   7.086  51.095  1.00  0.00    -0.237 NA
ATOM     27  C   UNL     1      25.531   6.948  50.219  1.00  0.00     0.134 A 
ATOM     28  H   UNL     1      22.381   6.566  52.672  1.00  0.00     0.167 HD
ATOM     29  Cl  UNL     1      27.222   5.747  48.483  1.00  0.00    -0.083 Cl
ENDBRANCH  17  19
ENDBRANCH  13  17
ENDBRANCH   1   9
TORSDOF 6
ENDMDL
MODEL 2
REMARK VINA RESULT:    -8.774      1.207      1.648
REMARK INTER + INTRA:         -13.117
REMARK INTER:                 -11.839
REMARK INTRA:                  -1.278
REMARK UNBOUND:                -1.265
REMARK SMILES CCCS(=O)(=O)Nc1ccc(F)c(C(=O)c2c[nH]c3ncc(Cl)cc23)c1F
REMARK SMILES IDX 7 1 4 3 5 4 6 5 3 6 2 7 1 8 8 9 9 10 26 11 10 12 13 13 11 14
REMARK SMILES IDX 27 15 12 16 14 17 15 18 16 19 17 20 25 21 18 22 24 23 19 24
REMARK SMILES IDX 22 25 20 26 21 27 23 29
REMARK H PARENT 7 2 18 28
ROOT
ATOM      1  N   UNL     1      27.058   0.584  52.395  1.00  0.00    -0.281 N 
ATOM      2  H   UNL     1      27.681   0.545  51.580  1.00  0.00     0.180 HD
ENDROOT
BRANCH   1   3
ATOM      3  S   UNL     1      27.861   1.511  53.577  1.00  0.00     0.232 S 
ATOM      4  O   UNL     1      26.883   2.132  54.445  1.00  0.00    -0.207 OA
ATOM      5  O   UNL     1      28.838   2.298  52.859  1.00  0.00    -0.207 OA
BRANCH   3   6
ATOM      6  C   UNL     1      28.724   0.245  54.503  1.00  0.00     0.159 C 
BRANCH   6   7
ATOM      7  C   UNL     1      29.824  -0.438  53.701  1.00  0.00     0.015 C 
ATOM      8  C   UNL     1      29.460  -1.880  53.387  1.00  0.00     0.005 C 
ENDBRANCH   6   7
ENDBRANCH   3   6
ENDBRANCH   1   3
BRANCH   1   9
ATOM      9  C   UNL     1      25.735   1.030  52.073  1.00  0.00     0.085 A 
ATOM     10  C   UNL     1      24.646   0.519  52.782  1.00  0.00     0.033 A 
ATOM     11  C   UNL     1      25.550   2.068  51.155  1.00  0.00     0.161 A 
ATOM     12  C   UNL     1      23.367   1.033  52.549  1.00  0.00     0.042 A 
ATOM     13  C   UNL     1      24.282   2.594  50.944  1.00  0.00     0.096 A 
ATOM     14  C   UNL     1      23.193   2.070  51.632  1.00  0.00     0.137 A 
ATOM     15  F   UNL     1      26.613   2.551  50.491  1.00  0.00    -0.204 F 
ATOM     16  F   UNL     1      21.963   2.567  51.450  1.00  0.00    -0.206 F 
BRANCH  13  17
ATOM     17  C   UNL     1      24.085   3.687  49.994  1.00  0.00     0.201 C 
ATOM     18  O   UNL     1      23.638   3.407  48.885  1.00  0.00    -0.288 OA
BRANCH  17  19
ATOM     19  C   UNL     1      24.421   5.049  50.403  1.00  0.00     0.050 A 
ATOM     20  C   UNL     1      23.788   5.811  51.377  1.00  0.00     0.097 A 
ATOM     21  C   UNL     1      25.470   5.869  49.867  1.00  0.00     0.031 A 
ATOM     22  N   UNL     1      24.417   7.030  51.454  1.00  0.00    -0.345 N 
ATOM     23  C   UNL     1      26.459   5.718  48.875  1.00  0.00     0.035 A 
ATOM     24  C   UNL     1      25.433   7.084  50.544  1.00  0.00     0.138 A 
ATOM     25  C   UNL     1      27.317   6.792  48.650  1.00  0.00     0.060 A 
ATOM     26  N   UNL     1      26.233   8.152  50.368  1.00  0.00    -0.237 NA
ATOM     27  C   UNL     1      27.165   7.951  49.403  1.00  0.00     0.134 A 
ATOM     28  H   UNL     1      24.182   7.788  52.079  1.00  0.00     0.167 HD
ATOM     29  Cl  UNL     1      28.548   6.682  47.455  1.00  0.00    -0.083 Cl
ENDBRANCH  17  19
ENDBRANCH  13  17
ENDBRANCH   1   9
TORSDOF 6
ENDMDL
MODEL 3
REMARK VINA RESULT:    -8.117      2.070      2.324
REMARK INTER + INTRA:         -12.229
REMARK INTER:                 -10.937
REMARK INTRA:                  -1.292
REMARK UNBOUND:                -1.265
REMARK SMILES CCCS(=O)(=O)Nc1ccc(F)c(C(=O)c2c[nH]c3ncc(Cl)cc23)c1F
REMARK SMILES IDX 7 1 4 3 5 4 6 5 3 6 2 7 1 8 8 9 9 10 26 11 10 12 13 13 11 14
REMARK SMILES IDX 27 15 12 16 14 17 15 18 16 19 17 20 25 21 18 22 24 23 19 24
REMARK SMILES IDX 22 25 20 26 21 27 23 29
REMARK H PARENT 7 2 18 28
ROOT
ATOM      1  N   UNL     1      26.528   1.658  54.548  1.00  0.00    -0.281 N 
ATOM      2  H   UNL     1      26.671   1.233  55.472  1.00  0.00     0.180 HD
ENDROOT
BRANCH   1   3
ATOM      3  S   UNL     1      28.018   1.560  53.730  1.00  0.00     0.232 S 
ATOM      4  O   UNL     1      28.802   2.741  54.018  1.00  0.00    -0.207 OA
ATOM      5  O   UNL     1      27.692   1.185  52.371  1.00  0.00    -0.207 OA
BRANCH   3   6
ATOM      6  C   UNL     1      28.781   0.156  54.535  1.00  0.00     0.159 C 
BRANCH   6   7
ATOM      7  C   UNL     1      29.747  -0.601  53.633  1.00  0.00     0.015 C 
ATOM      8  C   UNL     1      29.194  -1.965  53.256  1.00  0.00     0.005 C 
ENDBRANCH   6   7
ENDBRANCH   3   6
ENDBRANCH   1   3
BRANCH   1   9
ATOM      9  C   UNL     1      25.411   1.107  53.840  1.00  0.00     0.085 A 
ATOM     10  C   UNL     1      25.177  -0.269  53.889  1.00  0.00     0.033 A 
ATOM     11  C   UNL     1      24.487   1.954  53.221  1.00  0.00     0.161 A 
ATOM     12  C   UNL     1      24.027  -0.796  53.294  1.00  0.00     0.042 A 
ATOM     13  C   UNL     1      23.333   1.431  52.653  1.00  0.00     0.096 A 
ATOM     14  C   UNL     1      23.110   0.058  52.680  1.00  0.00     0.137 A 
ATOM     15  F   UNL     1      24.728   3.275  53.193  1.00  0.00    -0.204 F 
ATOM     16  F   UNL     1      22.001  -0.468  52.146  1.00  0.00    -0.206 F 
BRANCH  13  17
ATOM     17  C   UNL     1      22.358   2.313  52.015  1.00  0.00     0.201 C 
ATOM     18  O   UNL     1      21.357   2.618  52.658  1.00  0.00    -0.288 OA
BRANCH  17  19
ATOM     19  C   UNL     1      22.615   2.788  50.658  1.00  0.00     0.050 A 
ATOM     20  C   UNL     1      22.558   2.045  49.485  1.00  0.00     0.097 A 
ATOM     21  C   UNL     1      22.990   4.119  50.273  1.00  0.00     0.031 A 
ATOM     22  N   UNL     1      22.862   2.870  48.431  1.00  0.00    -0.345 N 
ATOM     23  C   UNL     1      23.226   5.333  50.949  1.00  0.00     0.035 A 
ATOM     24  C   UNL     1      23.132   4.126  48.890  1.00  0.00     0.138 A 
ATOM     25  C   UNL     1      23.582   6.440  50.181  1.00  0.00     0.060 A 
ATOM     26  N   UNL     1      23.473   5.162  48.100  1.00  0.00    -0.237 NA
ATOM     27  C   UNL     1      23.688   6.303  48.801  1.00  0.00     0.134 A 
ATOM     28  H   UNL     1      22.891   2.611  47.454  1.00  0.00     0.167 HD
ATOM     29  Cl  UNL     1      23.886   7.955  50.935  1.00  0.00    -0.083 Cl
ENDBRANCH  17  19
ENDBRANCH  13  17
ENDBRANCH   1   9
TORSDOF 6
ENDMDL
MODEL 4
REMARK VINA RESULT:    -8.085      3.642      6.296
REMARK INTER + INTRA:         -12.185
REMARK INTER:                 -11.114
REMARK INTRA:                  -1.071
REMARK UNBOUND:                -1.265
REMARK SMILES CCCS(=O)(=O)Nc1ccc(F)c(C(=O)c2c[nH]c3ncc(Cl)cc23)c1F
REMARK SMILES IDX 7 1 4 3 5 4 6 5 3 6 2 7 1 8 8 9 9 10 26 11 10 12 13 13 11 14
REMARK SMILES IDX 27 15 12 16 14 17 15 18 16 19 17 20 25 21 18 22 24 23 19 24
REMARK SMILES IDX 22 25 20 26 21 27 23 29
REMARK H PARENT 7 2 18 28
ROOT
ATOM      1  N   UNL     1      25.376   4.327  50.942  1.00  0.00    -0.281 N 
ATOM      2  H   UNL     1      25.905   3.498  50.646  1.00  0.00     0.180 HD
ENDROOT
BRANCH   1   3
ATOM      3  S   UNL     1      25.420   5.422  49.639  1.00  0.00     0.232 S 
ATOM      4  O   UNL     1      25.553   6.770  50.149  1.00  0.00    -0.207 OA
ATOM      5  O   UNL     1      24.320   5.049  48.778  1.00  0.00    -0.207 OA
BRANCH   3   6
ATOM      6  C   UNL     1      26.950   4.963  48.831  1.00  0.00     0.159 C 
BRANCH   6   7
ATOM      7  C   UNL     1      27.800   6.162  48.431  1.00  0.00     0.015 C 
ATOM      8  C   UNL     1      29.221   5.742  48.094  1.00  0.00     0.005 C 
ENDBRANCH   6   7
ENDBRANCH   3   6
ENDBRANCH   1   3
BRANCH   1   9
ATOM      9  C   UNL     1      24.065   4.017  51.427  1.00  0.00     0.085 A 
ATOM     10  C   UNL     1      23.238   5.046  51.882  1.00  0.00     0.033 A 
ATOM     11  C   UNL     1      23.567   2.714  51.315  1.00  0.00     0.161 A 
ATOM     12  C   UNL     1      21.920   4.762  52.249  1.00  0.00     0.042 A 
ATOM     13  C   UNL     1      22.249   2.440  51.658  1.00  0.00     0.096 A 
ATOM     14  C   UNL     1      21.432   3.460  52.133  1.00  0.00     0.137 A 
ATOM     15  F   UNL     1      24.376   1.742  50.867  1.00  0.00    -0.204 F 
ATOM     16  F   UNL     1      20.156   3.221  52.462  1.00  0.00    -0.206 F 
BRANCH  13  17
ATOM     17  C   UNL     1      21.720   1.084  51.532  1.00  0.00     0.201 C 
ATOM     18  O   UNL     1      21.389   0.701  50.413  1.00  0.00    -0.288 OA
BRANCH  17  19
ATOM     19  C   UNL     1      21.612   0.253  52.728  1.00  0.00     0.050 A 
ATOM     20  C   UNL     1      20.450  -0.264  53.287  1.00  0.00     0.097 A 
ATOM     21  C   UNL     1      22.691  -0.183  53.569  1.00  0.00     0.031 A 
ATOM     22  N   UNL     1      20.787  -0.993  54.401  1.00  0.00    -0.345 N 
ATOM     23  C   UNL     1      24.090  -0.014  53.580  1.00  0.00     0.035 A 
ATOM     24  C   UNL     1      22.138  -0.950  54.589  1.00  0.00     0.138 A 
ATOM     25  C   UNL     1      24.806  -0.625  54.607  1.00  0.00     0.060 A 
ATOM     26  N   UNL     1      22.779  -1.561  55.603  1.00  0.00    -0.237 NA
ATOM     27  C   UNL     1      24.121  -1.365  55.564  1.00  0.00     0.134 A 
ATOM     28  H   UNL     1      20.152  -1.493  55.006  1.00  0.00     0.167 HD
ATOM     29  Cl  UNL     1      26.515  -0.462  54.686  1.00  0.00    -0.083 Cl
ENDBRANCH  17  19
ENDBRANCH  13  17
ENDBRANCH   1   9
TORSDOF 6
ENDMDL
MODEL 5
REMARK VINA RESULT:    -8.083      2.481      2.864
REMARK INTER + INTRA:         -12.184
REMARK INTER:                 -11.006
REMARK INTRA:                  -1.178
REMARK UNBOUND:                -1.265
REMARK SMILES CCCS(=O)(=O)Nc1ccc(F)c(C(=O)c2c[nH]c3ncc(Cl)cc23)c1F
REMARK SMILES IDX 7 1 4 3 5 4 6 5 3 6 2 7 1 8 8 9 9 10 26 11 10 12 13 13 11 14
REMARK SMILES IDX 27 15 12 16 14 17 15 18 16 19 17 20 25 21 18 22 24 23 19 24
REMARK SMILES IDX 22 25 20 26 21 27 23 29
REMARK H PARENT 7 2 18 28
ROOT
ATOM      1  N   UNL     1      27.105   0.711  52.295  1.00  0.00    -0.281 N 
ATOM      2  H   UNL     1      27.360   1.157  51.406  1.00  0.00     0.180 HD
ENDROOT
BRANCH   1   3
ATOM      3  S   UNL     1      27.855   1.616  53.527  1.00  0.00     0.232 S 
ATOM      4  O   UNL     1      26.842   2.155  54.409  1.00  0.00    -0.207 OA
ATOM      5  O   UNL     1      28.804   2.477  52.857  1.00  0.00    -0.207 OA
BRANCH   3   6
ATOM      6  C   UNL     1      28.763   0.349  54.405  1.00  0.00     0.159 C 
BRANCH   6   7
ATOM      7  C   UNL     1      29.831  -0.323  53.552  1.00  0.00     0.015 C 
ATOM      8  C   UNL     1      29.577  -1.817  53.428  1.00  0.00     0.005 C 
ENDBRANCH   6   7
ENDBRANCH   3   6
ENDBRANCH   1   3
BRANCH   1   9
ATOM      9  C   UNL     1      25.692   0.531  52.451  1.00  0.00     0.085 A 
ATOM     10  C   UNL     1      25.215  -0.506  53.256  1.00  0.00     0.033 A 
ATOM     11  C   UNL     1      24.804   1.469  51.915  1.00  0.00     0.161 A 
ATOM     12  C   UNL     1      23.844  -0.615  53.501  1.00  0.00     0.042 A 
ATOM     13  C   UNL     1      23.444   1.371  52.180  1.00  0.00     0.096 A 
ATOM     14  C   UNL     1      22.966   0.326  52.963  1.00  0.00     0.137 A 
ATOM     15  F   UNL     1      25.285   2.462  51.151  1.00  0.00    -0.204 F 
ATOM     16  F   UNL     1      21.660   0.217  53.239  1.00  0.00    -0.206 F 
BRANCH  13  17
ATOM     17  C   UNL     1      22.513   2.355  51.633  1.00  0.00     0.201 C 
ATOM     18  O   UNL     1      22.173   3.287  52.358  1.00  0.00    -0.288 OA
BRANCH  17  19
ATOM     19  C   UNL     1      22.033   2.189  50.263  1.00  0.00     0.050 A 
ATOM     20  C   UNL     1      21.344   1.101  49.743  1.00  0.00     0.097 A 
ATOM     21  C   UNL     1      22.192   3.119  49.182  1.00  0.00     0.031 A 
ATOM     22  N   UNL     1      21.076   1.346  48.419  1.00  0.00    -0.345 N 
ATOM     23  C   UNL     1      22.786   4.388  49.024  1.00  0.00     0.035 A 
ATOM     24  C   UNL     1      21.586   2.560  48.061  1.00  0.00     0.138 A 
ATOM     25  C   UNL     1      22.720   4.978  47.763  1.00  0.00     0.060 A 
ATOM     26  N   UNL     1      21.494   3.084  46.825  1.00  0.00    -0.237 NA
ATOM     27  C   UNL     1      22.081   4.303  46.730  1.00  0.00     0.134 A 
ATOM     28  H   UNL     1      20.579   0.737  47.784  1.00  0.00     0.167 HD
ATOM     29  Cl  UNL     1      23.423   6.524  47.495  1.00  0.00    -0.083 Cl
ENDBRANCH  17  19
ENDBRANCH  13  17
ENDBRANCH   1   9
TORSDOF 6
ENDMDL
MODEL 6
REMARK VINA RESULT:    -8.008      3.938      6.409
REMARK INTER + INTRA:         -12.082
REMARK INTER:                 -11.025
REMARK INTRA:                  -1.057
REMARK UNBOUND:                -1.265
REMARK SMILES CCCS(=O)(=O)Nc1ccc(F)c(C(=O)c2c[nH]c3ncc(Cl)cc23)c1F
REMARK SMILES IDX 7 1 4 3 5 4 6 5 3 6 2 7 1 8 8 9 9 10 26 11 10 12 13 13 11 14
REMARK SMILES IDX 27 15 12 16 14 17 15 18 16 19 17 20 25 21 18 22 24 23 19 24
REMARK SMILES IDX 22 25 20 26 21 27 23 29
REMARK H PARENT 7 2 18 28
ROOT
ATOM      1  N   UNL     1      20.261   0.839  51.526  1.00  0.00    -0.281 N 
ATOM      2  H   UNL     1      19.374   0.326  51.465  1.00  0.00     0.180 HD
ENDROOT
BRANCH   1   3
ATOM      3  S   UNL     1      19.865   2.494  51.580  1.00  0.00     0.232 S 
ATOM      4  O   UNL     1      20.322   3.056  52.833  1.00  0.00    -0.207 OA
ATOM      5  O   UNL     1      18.478   2.577  51.180  1.00  0.00    -0.207 OA
BRANCH   3   6
ATOM      6  C   UNL     1      20.874   3.151  50.257  1.00  0.00     0.159 C 
BRANCH   6   7
ATOM      7  C   UNL     1      21.071   2.170  49.109  1.00  0.00     0.015 C 
ATOM      8  C   UNL     1      22.392   2.412  48.398  1.00  0.00     0.005 C 
ENDBRANCH   6   7
ENDBRANCH   3   6
ENDBRANCH   1   3
BRANCH   1   9
ATOM      9  C   UNL     1      21.104   0.384  52.591  1.00  0.00     0.085 A 
ATOM     10  C   UNL     1      20.527  -0.081  53.775  1.00  0.00     0.033 A 
ATOM     11  C   UNL     1      22.485   0.277  52.394  1.00  0.00     0.161 A 
ATOM     12  C   UNL     1      21.340  -0.629  54.771  1.00  0.00     0.042 A 
ATOM     13  C   UNL     1      23.286  -0.291  53.376  1.00  0.00     0.096 A 
ATOM     14  C   UNL     1      22.716  -0.733  54.565  1.00  0.00     0.137 A 
ATOM     15  F   UNL     1      23.017   0.722  51.245  1.00  0.00    -0.204 F 
ATOM     16  F   UNL     1      23.468  -1.292  55.521  1.00  0.00    -0.206 F 
BRANCH  13  17
ATOM     17  C   UNL     1      24.728  -0.417  53.170  1.00  0.00     0.201 C 
ATOM     18  O   UNL     1      25.156  -1.496  52.769  1.00  0.00    -0.288 OA
BRANCH  17  19
ATOM     19  C   UNL     1      25.585   0.733  53.447  1.00  0.00     0.050 A 
ATOM     20  C   UNL     1      25.195   2.062  53.551  1.00  0.00     0.097 A 
ATOM     21  C   UNL     1      27.004   0.713  53.656  1.00  0.00     0.031 A 
ATOM     22  N   UNL     1      26.304   2.823  53.824  1.00  0.00    -0.345 N 
ATOM     23  C   UNL     1      28.005  -0.280  53.679  1.00  0.00     0.035 A 
ATOM     24  C   UNL     1      27.409   2.024  53.886  1.00  0.00     0.138 A 
ATOM     25  C   UNL     1      29.313   0.129  53.928  1.00  0.00     0.060 A 
ATOM     26  N   UNL     1      28.654   2.473  54.130  1.00  0.00    -0.237 NA
ATOM     27  C   UNL     1      29.575   1.477  54.141  1.00  0.00     0.134 A 
ATOM     28  H   UNL     1      26.327   3.824  53.962  1.00  0.00     0.167 HD
ATOM     29  Cl  UNL     1      30.587  -1.025  53.969  1.00  0.00    -0.083 Cl
ENDBRANCH  17  19
ENDBRANCH  13  17
ENDBRANCH   1   9
TORSDOF 6
ENDMDL
MODEL 7
REMARK VINA RESULT:    -7.946      3.227      4.778
REMARK INTER + INTRA:         -11.997
REMARK INTER:                 -10.675
REMARK INTRA:                  -1.323
REMARK UNBOUND:                -1.265
REMARK SMILES CCCS(=O)(=O)Nc1ccc(F)c(C(=O)c2c[nH]c3ncc(Cl)cc23)c1F
REMARK SMILES IDX 7 1 4 3 5 4 6 5 3 6 2 7 1 8 8 9 9 10 26 11 10 12 13 13 11 14
REMARK SMILES IDX 27 15 12 16 14 17 15 18 16 19 17 20 25 21 18 22 24 23 19 24
REMARK SMILES IDX 22 25 20 26 21 27 23 29
REMARK H PARENT 7 2 18 28
ROOT
ATOM      1  N   UNL     1      27.143   0.857  52.301  1.00  0.00    -0.281 N 
ATOM      2  H   UNL     1      27.703   0.339  51.614  1.00  0.00     0.180 HD
ENDROOT
BRANCH   1   3
ATOM      3  S   UNL     1      28.211   1.339  53.537  1.00  0.00     0.232 S 
ATOM      4  O   UNL     1      27.651   0.978  54.821  1.00  0.00    -0.207 OA
ATOM      5  O   UNL     1      28.572   2.705  53.230  1.00  0.00    -0.207 OA
BRANCH   3   6
ATOM      6  C   UNL     1      29.628   0.294  53.217  1.00  0.00     0.159 C 
BRANCH   6   7
ATOM      7  C   UNL     1      29.587  -1.022  53.983  1.00  0.00     0.015 C 
ATOM      8  C   UNL     1      28.961  -2.126  53.147  1.00  0.00     0.005 C 
ENDBRANCH   6   7
ENDBRANCH   3   6
ENDBRANCH   1   3
BRANCH   1   9
ATOM      9  C   UNL     1      26.375   1.917  51.719  1.00  0.00     0.085 A 
ATOM     10  C   UNL     1      26.670   2.351  50.424  1.00  0.00     0.033 A 
ATOM     11  C   UNL     1      25.252   2.417  52.387  1.00  0.00     0.161 A 
ATOM     12  C   UNL     1      25.853   3.305  49.812  1.00  0.00     0.042 A 
ATOM     13  C   UNL     1      24.428   3.346  51.766  1.00  0.00     0.096 A 
ATOM     14  C   UNL     1      24.735   3.796  50.486  1.00  0.00     0.137 A 
ATOM     15  F   UNL     1      24.982   1.980  53.627  1.00  0.00    -0.204 F 
ATOM     16  F   UNL     1      23.950   4.686  49.865  1.00  0.00    -0.206 F 
BRANCH  13  17
ATOM     17  C   UNL     1      23.247   3.863  52.455  1.00  0.00     0.201 C 
ATOM     18  O   UNL     1      23.410   4.770  53.267  1.00  0.00    -0.288 OA
BRANCH  17  19
ATOM     19  C   UNL     1      21.941   3.286  52.148  1.00  0.00     0.050 A 
ATOM     20  C   UNL     1      20.929   3.861  51.389  1.00  0.00     0.097 A 
ATOM     21  C   UNL     1      21.444   2.012  52.583  1.00  0.00     0.031 A 
ATOM     22  N   UNL     1      19.870   2.988  51.340  1.00  0.00    -0.345 N 
ATOM     23  C   UNL     1      21.941   0.951  53.366  1.00  0.00     0.035 A 
ATOM     24  C   UNL     1      20.162   1.867  52.061  1.00  0.00     0.138 A 
ATOM     25  C   UNL     1      21.114  -0.153  53.557  1.00  0.00     0.060 A 
ATOM     26  N   UNL     1      19.322   0.826  52.214  1.00  0.00    -0.237 NA
ATOM     27  C   UNL     1      19.851  -0.164  52.975  1.00  0.00     0.134 A 
ATOM     28  H   UNL     1      18.996   3.130  50.854  1.00  0.00     0.167 HD
ATOM     29  Cl  UNL     1      21.652  -1.485  54.502  1.00  0.00    -0.083 Cl
ENDBRANCH  17  19
ENDBRANCH  13  17
ENDBRANCH   1   9
TORSDOF 6
ENDMDL
MODEL 8
REMARK VINA RESULT:    -7.665      3.349      6.105
REMARK INTER + INTRA:         -11.618
REMARK INTER:                 -10.668
REMARK INTRA:                  -0.950
REMARK UNBOUND:                -1.265
REMARK SMILES CCCS(=O)(=O)Nc1ccc(F)c(C(=O)c2c[nH]c3ncc(Cl)cc23)c1F
REMARK SMILES IDX 7 1 4 3 5 4 6 5 3 6 2 7 1 8 8 9 9 10 26 11 10 12 13 13 11 14
REMARK SMILES IDX 27 15 12 16 14 17 15 18 16 19 17 20 25 21 18 22 24 23 19 24
REMARK SMILES IDX 22 25 20 26 21 27 23 29
REMARK H PARENT 7 2 18 28
ROOT
ATOM      1  N   UNL     1      21.764   2.669  49.510  1.00  0.00    -0.281 N 
ATOM      2  H   UNL     1      20.870   2.546  49.019  1.00  0.00     0.180 HD
ENDROOT
BRANCH   1   3
ATOM      3  S   UNL     1      22.170   4.317  49.378  1.00  0.00     0.232 S 
ATOM      4  O   UNL     1      22.203   4.910  50.697  1.00  0.00    -0.207 OA
ATOM      5  O   UNL     1      21.319   4.846  48.335  1.00  0.00    -0.207 OA
BRANCH   3   6
ATOM      6  C   UNL     1      23.843   4.227  48.750  1.00  0.00     0.159 C 
BRANCH   6   7
ATOM      7  C   UNL     1      24.894   4.598  49.789  1.00  0.00     0.015 C 
ATOM      8  C   UNL     1      26.136   5.177  49.133  1.00  0.00     0.005 C 
ENDBRANCH   6   7
ENDBRANCH   3   6
ENDBRANCH   1   3
BRANCH   1   9
ATOM      9  C   UNL     1      21.748   2.156  50.848  1.00  0.00     0.085 A 
ATOM     10  C   UNL     1      20.553   2.154  51.571  1.00  0.00     0.033 A 
ATOM     11  C   UNL     1      22.887   1.536  51.373  1.00  0.00     0.161 A 
ATOM     12  C   UNL     1      20.510   1.552  52.831  1.00  0.00     0.042 A 
ATOM     13  C   UNL     1      22.833   0.918  52.615  1.00  0.00     0.096 A 
ATOM     14  C   UNL     1      21.650   0.936  53.346  1.00  0.00     0.137 A 
ATOM     15  F   UNL     1      24.023   1.542  50.657  1.00  0.00    -0.204 F 
ATOM     16  F   UNL     1      21.573   0.338  54.542  1.00  0.00    -0.206 F 
BRANCH  13  17
ATOM     17  C   UNL     1      24.016   0.258  53.164  1.00  0.00     0.201 C 
ATOM     18  O   UNL     1      23.961  -0.955  53.347  1.00  0.00    -0.288 OA
BRANCH  17  19
ATOM     19  C   UNL     1      25.199   1.062  53.464  1.00  0.00     0.050 A 
ATOM     20  C   UNL     1      25.240   2.425  53.728  1.00  0.00     0.097 A 
ATOM     21  C   UNL     1      26.555   0.598  53.532  1.00  0.00     0.031 A 
ATOM     22  N   UNL     1      26.544   2.786  53.964  1.00  0.00    -0.345 N 
ATOM     23  C   UNL     1      27.205  -0.642  53.365  1.00  0.00     0.035 A 
ATOM     24  C   UNL     1      27.353   1.693  53.844  1.00  0.00     0.138 A 
ATOM     25  C   UNL     1      28.589  -0.672  53.524  1.00  0.00     0.060 A 
ATOM     26  N   UNL     1      28.689   1.722  54.008  1.00  0.00    -0.237 NA
ATOM     27  C   UNL     1      29.261   0.504  53.836  1.00  0.00     0.134 A 
ATOM     28  H   UNL     1      26.879   3.711  54.193  1.00  0.00     0.167 HD
ATOM     29  Cl  UNL     1      29.449  -2.147  53.334  1.00  0.00    -0.083 Cl
ENDBRANCH  17  19
ENDBRANCH  13  17
ENDBRANCH   1   9
TORSDOF 6
ENDMDL
MODEL 9
REMARK VINA RESULT:    -7.564      8.124     11.392
REMARK INTER + INTRA:         -11.482
REMARK INTER:                 -10.057
REMARK INTRA:                  -1.425
REMARK UNBOUND:                -1.265
REMARK SMILES CCCS(=O)(=O)Nc1ccc(F)c(C(=O)c2c[nH]c3ncc(Cl)cc23)c1F
REMARK SMILES IDX 7 1 4 3 5 4 6 5 3 6 2 7 1 8 8 9 9 10 26 11 10 12 13 13 11 14
REMARK SMILES IDX 27 15 12 16 14 17 15 18 16 19 17 20 25 21 18 22 24 23 19 24
REMARK SMILES IDX 22 25 20 26 21 27 23 29
REMARK H PARENT 7 2 18 28
ROOT
ATOM      1  N   UNL     1      29.102   9.370  49.929  1.00  0.00    -0.281 N 
ATOM      2  H   UNL     1      29.037   9.879  50.818  1.00  0.00     0.180 HD
ENDROOT
BRANCH   1   3
ATOM      3  S   UNL     1      27.531   9.333  49.273  1.00  0.00     0.232 S 
ATOM      4  O   UNL     1      27.579   9.749  47.888  1.00  0.00    -0.207 OA
ATOM      5  O   UNL     1      26.691  10.012  50.235  1.00  0.00    -0.207 OA
BRANCH   3   6
ATOM      6  C   UNL     1      27.157   7.584  49.332  1.00  0.00     0.159 C 
BRANCH   6   7
ATOM      7  C   UNL     1      27.634   6.827  48.099  1.00  0.00     0.015 C 
ATOM      8  C   UNL     1      28.039   5.405  48.449  1.00  0.00     0.005 C 
ENDBRANCH   6   7
ENDBRANCH   3   6
ENDBRANCH   1   3
BRANCH   1   9
ATOM      9  C   UNL     1      30.110   9.891  49.053  1.00  0.00     0.085 A 
ATOM     10  C   UNL     1      30.382  11.260  49.054  1.00  0.00     0.033 A 
ATOM     11  C   UNL     1      30.908   9.017  48.307  1.00  0.00     0.161 A 
ATOM     12  C   UNL     1      31.439  11.755  48.285  1.00  0.00     0.042 A 
ATOM     13  C   UNL     1      31.973   9.509  47.564  1.00  0.00     0.096 A 
ATOM     14  C   UNL     1      32.230  10.875  47.546  1.00  0.00     0.137 A 
ATOM     15  F   UNL     1      30.634   7.703  48.328  1.00  0.00    -0.204 F 
ATOM     16  F   UNL     1      33.257  11.371  46.843  1.00  0.00    -0.206 F 
BRANCH  13  17
ATOM     17  C   UNL     1      32.818   8.599  46.793  1.00  0.00     0.201 C 
ATOM     18  O   UNL     1      32.699   8.606  45.571  1.00  0.00    -0.288 OA
BRANCH  17  19
ATOM     19  C   UNL     1      33.757   7.734  47.502  1.00  0.00     0.050 A 
ATOM     20  C   UNL     1      34.837   8.131  48.282  1.00  0.00     0.097 A 
ATOM     21  C   UNL     1      33.753   6.299  47.521  1.00  0.00     0.031 A 
ATOM     22  N   UNL     1      35.458   7.009  48.771  1.00  0.00    -0.345 N 
ATOM     23  C   UNL     1      32.956   5.287  46.950  1.00  0.00     0.035 A 
ATOM     24  C   UNL     1      34.819   5.892  48.317  1.00  0.00     0.138 A 
ATOM     25  C   UNL     1      33.298   3.965  47.224  1.00  0.00     0.060 A 
ATOM     26  N   UNL     1      35.194   4.634  48.614  1.00  0.00    -0.237 NA
ATOM     27  C   UNL     1      34.394   3.702  48.039  1.00  0.00     0.134 A 
ATOM     28  H   UNL     1      36.267   6.986  49.376  1.00  0.00     0.167 HD
ATOM     29  Cl  UNL     1      32.372   2.676  46.562  1.00  0.00    -0.083 Cl
ENDBRANCH  17  19
ENDBRANCH  13  17
ENDBRANCH   1   9
TORSDOF 6
ENDMDL
MODEL 10
REMARK VINA RESULT:    -7.563      2.947      5.975
REMARK INTER + INTRA:         -11.480
REMARK INTER:                 -10.420
REMARK INTRA:                  -1.061
REMARK UNBOUND:                -1.265
REMARK SMILES CCCS(=O)(=O)Nc1ccc(F)c(C(=O)c2c[nH]c3ncc(Cl)cc23)c1F
REMARK SMILES IDX 7 1 4 3 5 4 6 5 3 6 2 7 1 8 8 9 9 10 26 11 10 12 13 13 11 14
REMARK SMILES IDX 27 15 12 16 14 17 15 18 16 19 17 20 25 21 18 22 24 23 19 24
REMARK SMILES IDX 22 25 20 26 21 27 23 29
REMARK H PARENT 7 2 18 28
ROOT
ATOM      1  N   UNL     1      22.648   5.126  50.186  1.00  0.00    -0.281 N 
ATOM      2  H   UNL     1      22.130   5.745  50.822  1.00  0.00     0.180 HD
ENDROOT
BRANCH   1   3
ATOM      3  S   UNL     1      24.302   5.383  50.497  1.00  0.00     0.232 S 
ATOM      4  O   UNL     1      24.873   4.186  51.075  1.00  0.00    -0.207 OA
ATOM      5  O   UNL     1      24.378   6.657  51.178  1.00  0.00    -0.207 OA
BRANCH   3   6
ATOM      6  C   UNL     1      24.954   5.587  48.843  1.00  0.00     0.159 C 
BRANCH   6   7
ATOM      7  C   UNL     1      26.407   6.045  48.823  1.00  0.00     0.015 C 
ATOM      8  C   UNL     1      27.353   4.866  48.667  1.00  0.00     0.005 C 
ENDBRANCH   6   7
ENDBRANCH   3   6
ENDBRANCH   1   3
BRANCH   1   9
ATOM      9  C   UNL     1      22.225   3.760  50.258  1.00  0.00     0.085 A 
ATOM     10  C   UNL     1      22.310   2.952  49.122  1.00  0.00     0.033 A 
ATOM     11  C   UNL     1      21.861   3.204  51.489  1.00  0.00     0.161 A 
ATOM     12  C   UNL     1      22.004   1.592  49.217  1.00  0.00     0.042 A 
ATOM     13  C   UNL     1      21.583   1.846  51.585  1.00  0.00     0.096 A 
ATOM     14  C   UNL     1      21.644   1.046  50.449  1.00  0.00     0.137 A 
ATOM     15  F   UNL     1      21.795   3.996  52.570  1.00  0.00    -0.204 F 
ATOM     16  F   UNL     1      21.388  -0.267  50.520  1.00  0.00    -0.206 F 
BRANCH  13  17
ATOM     17  C   UNL     1      21.214   1.257  52.871  1.00  0.00     0.201 C 
ATOM     18  O   UNL     1      20.101   1.516  53.321  1.00  0.00    -0.288 OA
BRANCH  17  19
ATOM     19  C   UNL     1      22.175   0.394  53.554  1.00  0.00     0.050 A 
ATOM     20  C   UNL     1      21.897  -0.580  54.506  1.00  0.00     0.097 A 
ATOM     21  C   UNL     1      23.599   0.393  53.382  1.00  0.00     0.031 A 
ATOM     22  N   UNL     1      23.078  -1.164  54.891  1.00  0.00    -0.345 N 
ATOM     23  C   UNL     1      24.519   1.116  52.596  1.00  0.00     0.035 A 
ATOM     24  C   UNL     1      24.119  -0.584  54.225  1.00  0.00     0.138 A 
ATOM     25  C   UNL     1      25.869   0.798  52.725  1.00  0.00     0.060 A 
ATOM     26  N   UNL     1      25.408  -0.932  54.390  1.00  0.00    -0.237 NA
ATOM     27  C   UNL     1      26.248  -0.205  53.610  1.00  0.00     0.134 A 
ATOM     28  H   UNL     1      23.188  -1.910  55.563  1.00  0.00     0.167 HD
ATOM     29  Cl  UNL     1      27.049   1.638  51.800  1.00  0.00    -0.083 Cl
ENDBRANCH  17  19
ENDBRANCH  13  17
ENDBRANCH   1   9
TORSDOF 6
ENDMDL
MODEL 11
REMARK VINA RESULT:    -7.560      2.446      3.111
REMARK INTER + INTRA:         -11.476
REMARK INTER:                 -10.451
REMARK INTRA:                  -1.025
REMARK UNBOUND:                -1.265
REMARK SMILES CCCS(=O)(=O)Nc1ccc(F)c(C(=O)c2c[nH]c3ncc(Cl)cc23)c1F
REMARK SMILES IDX 7 1 4 3 5 4 6 5 3 6 2 7 1 8 8 9 9 10 26 11 10 12 13 13 11 14
REMARK SMILES IDX 27 15 12 16 14 17 15 18 16 19 17 20 25 21 18 22 24 23 19 24
REMARK SMILES IDX 22 25 20 26 21 27 23 29
REMARK H PARENT 7 2 18 28
ROOT
ATOM      1  N   UNL     1      26.229   1.681  54.355  1.00  0.00    -0.281 N 
ATOM      2  H   UNL     1      25.397   1.698  54.957  1.00  0.00     0.180 HD
ENDROOT
BRANCH   1   3
ATOM      3  S   UNL     1      26.812   0.082  54.375  1.00  0.00     0.232 S 
ATOM      4  O   UNL     1      26.720  -0.478  53.043  1.00  0.00    -0.207 OA
ATOM      5  O   UNL     1      26.172  -0.554  55.505  1.00  0.00    -0.207 OA
BRANCH   3   6
ATOM      6  C   UNL     1      28.540   0.331  54.771  1.00  0.00     0.159 C 
BRANCH   6   7
ATOM      7  C   UNL     1      29.472   0.026  53.606  1.00  0.00     0.015 C 
ATOM      8  C   UNL     1      29.921  -1.425  53.625  1.00  0.00     0.005 C 
ENDBRANCH   6   7
ENDBRANCH   3   6
ENDBRANCH   1   3
BRANCH   1   9
ATOM      9  C   UNL     1      25.993   2.223  53.050  1.00  0.00     0.085 A 
ATOM     10  C   UNL     1      27.065   2.390  52.170  1.00  0.00     0.033 A 
ATOM     11  C   UNL     1      24.684   2.452  52.614  1.00  0.00     0.161 A 
ATOM     12  C   UNL     1      26.824   2.811  50.860  1.00  0.00     0.042 A 
ATOM     13  C   UNL     1      24.446   2.847  51.304  1.00  0.00     0.096 A 
ATOM     14  C   UNL     1      25.515   3.036  50.433  1.00  0.00     0.137 A 
ATOM     15  F   UNL     1      23.669   2.277  53.473  1.00  0.00    -0.204 F 
ATOM     16  F   UNL     1      25.308   3.408  49.163  1.00  0.00    -0.206 F 
BRANCH  13  17
ATOM     17  C   UNL     1      23.080   3.076  50.838  1.00  0.00     0.201 C 
ATOM     18  O   UNL     1      22.427   2.100  50.478  1.00  0.00    -0.288 OA
BRANCH  17  19
ATOM     19  C   UNL     1      22.557   4.440  50.823  1.00  0.00     0.050 A 
ATOM     20  C   UNL     1      22.150   5.193  51.918  1.00  0.00     0.097 A 
ATOM     21  C   UNL     1      22.352   5.266  49.668  1.00  0.00     0.031 A 
ATOM     22  N   UNL     1      21.731   6.422  51.472  1.00  0.00    -0.345 N 
ATOM     23  C   UNL     1      22.545   5.122  48.280  1.00  0.00     0.035 A 
ATOM     24  C   UNL     1      21.842   6.482  50.113  1.00  0.00     0.138 A 
ATOM     25  C   UNL     1      22.210   6.202  47.465  1.00  0.00     0.060 A 
ATOM     26  N   UNL     1      21.501   7.554  49.374  1.00  0.00    -0.237 NA
ATOM     27  C   UNL     1      21.708   7.360  48.047  1.00  0.00     0.134 A 
ATOM     28  H   UNL     1      21.388   7.183  52.041  1.00  0.00     0.167 HD
ATOM     29  Cl  UNL     1      22.417   6.098  45.762  1.00  0.00    -0.083 Cl
ENDBRANCH  17  19
ENDBRANCH  13  17
ENDBRANCH   1   9
TORSDOF 6
ENDMDL
MODEL 12
REMARK VINA RESULT:    -7.558      3.098      6.151
REMARK INTER + INTRA:         -11.473
REMARK INTER:                 -10.354
REMARK INTRA:                  -1.120
REMARK UNBOUND:                -1.265
REMARK SMILES CCCS(=O)(=O)Nc1ccc(F)c(C(=O)c2c[nH]c3ncc(Cl)cc23)c1F
REMARK SMILES IDX 7 1 4 3 5 4 6 5 3 6 2 7 1 8 8 9 9 10 26 11 10 12 13 13 11 14
REMARK SMILES IDX 27 15 12 16 14 17 15 18 16 19 17 20 25 21 18 22 24 23 19 24
REMARK SMILES IDX 22 25 20 26 21 27 23 29
REMARK H PARENT 7 2 18 28
ROOT
ATOM      1  N   UNL     1      25.585   5.745  50.351  1.00  0.00    -0.281 N 
ATOM      2  H   UNL     1      26.285   5.098  49.969  1.00  0.00     0.180 HD
ENDROOT
BRANCH   1   3
ATOM      3  S   UNL     1      25.116   6.766  49.070  1.00  0.00     0.232 S 
ATOM      4  O   UNL     1      24.873   8.097  49.583  1.00  0.00    -0.207 OA
ATOM      5  O   UNL     1      24.096   6.040  48.346  1.00  0.00    -0.207 OA
BRANCH   3   6
ATOM      6  C   UNL     1      26.601   6.799  48.073  1.00  0.00     0.159 C 
BRANCH   6   7
ATOM      7  C   UNL     1      27.567   5.668  48.398  1.00  0.00     0.015 C 
ATOM      8  C   UNL     1      29.012   6.114  48.239  1.00  0.00     0.005 C 
ENDBRANCH   6   7
ENDBRANCH   3   6
ENDBRANCH   1   3
BRANCH   1   9
ATOM      9  C   UNL     1      24.506   5.081  51.020  1.00  0.00     0.085 A 
ATOM     10  C   UNL     1      23.547   5.836  51.697  1.00  0.00     0.033 A 
ATOM     11  C   UNL     1      24.340   3.699  50.877  1.00  0.00     0.161 A 
ATOM     12  C   UNL     1      22.434   5.199  52.254  1.00  0.00     0.042 A 
ATOM     13  C   UNL     1      23.221   3.074  51.411  1.00  0.00     0.096 A 
ATOM     14  C   UNL     1      22.276   3.821  52.106  1.00  0.00     0.137 A 
ATOM     15  F   UNL     1      25.270   2.994  50.215  1.00  0.00    -0.204 F 
ATOM     16  F   UNL     1      21.185   3.241  52.621  1.00  0.00    -0.206 F 
BRANCH  13  17
ATOM     17  C   UNL     1      23.036   1.632  51.255  1.00  0.00     0.201 C 
ATOM     18  O   UNL     1      22.567   1.227  50.195  1.00  0.00    -0.288 OA
BRANCH  17  19
ATOM     19  C   UNL     1      23.414   0.748  52.354  1.00  0.00     0.050 A 
ATOM     20  C   UNL     1      22.624  -0.222  52.960  1.00  0.00     0.097 A 
ATOM     21  C   UNL     1      24.678   0.717  53.032  1.00  0.00     0.031 A 
ATOM     22  N   UNL     1      23.359  -0.831  53.946  1.00  0.00    -0.345 N 
ATOM     23  C   UNL     1      25.894   1.422  52.928  1.00  0.00     0.035 A 
ATOM     24  C   UNL     1      24.603  -0.272  54.007  1.00  0.00     0.138 A 
ATOM     25  C   UNL     1      26.919   1.075  53.806  1.00  0.00     0.060 A 
ATOM     26  N   UNL     1      25.557  -0.648  54.879  1.00  0.00    -0.237 NA
ATOM     27  C   UNL     1      26.704   0.063  54.734  1.00  0.00     0.134 A 
ATOM     28  H   UNL     1      23.050  -1.581  54.549  1.00  0.00     0.167 HD
ATOM     29  Cl  UNL     1      28.430   1.892  53.739  1.00  0.00    -0.083 Cl
ENDBRANCH  17  19
ENDBRANCH  13  17
ENDBRANCH   1   9
TORSDOF 6
ENDMDL
MODEL 13
REMARK VINA RESULT:    -7.545      2.730      4.572
REMARK INTER + INTRA:         -11.456
REMARK INTER:                 -10.397
REMARK INTRA:                  -1.058
REMARK UNBOUND:                -1.265
REMARK SMILES CCCS(=O)(=O)Nc1ccc(F)c(C(=O)c2c[nH]c3ncc(Cl)cc23)c1F
REMARK SMILES IDX 7 1 4 3 5 4 6 5 3 6 2 7 1 8 8 9 9 10 26 11 10 12 13 13 11 14
REMARK SMILES IDX 27 15 12 16 14 17 15 18 16 19 17 20 25 21 18 22 24 23 19 24
REMARK SMILES IDX 22 25 20 26 21 27 23 29
REMARK H PARENT 7 2 18 28
ROOT
ATOM      1  N   UNL     1      22.474  -1.151  53.070  1.00  0.00    -0.281 N 
ATOM      2  H   UNL     1      22.912  -2.077  53.137  1.00  0.00     0.180 HD
ENDROOT
BRANCH   1   3
ATOM      3  S   UNL     1      21.552  -0.944  54.486  1.00  0.00     0.232 S 
ATOM      4  O   UNL     1      21.334   0.469  54.714  1.00  0.00    -0.207 OA
ATOM      5  O   UNL     1      22.180  -1.779  55.486  1.00  0.00    -0.207 OA
BRANCH   3   6
ATOM      6  C   UNL     1      19.997  -1.694  54.018  1.00  0.00     0.159 C 
BRANCH   6   7
ATOM      7  C   UNL     1      19.073  -0.742  53.270  1.00  0.00     0.015 C 
ATOM      8  C   UNL     1      17.749  -1.409  52.934  1.00  0.00     0.005 C 
ENDBRANCH   6   7
ENDBRANCH   3   6
ENDBRANCH   1   3
BRANCH   1   9
ATOM      9  C   UNL     1      23.412  -0.101  52.800  1.00  0.00     0.085 A 
ATOM     10  C   UNL     1      24.670  -0.130  53.405  1.00  0.00     0.033 A 
ATOM     11  C   UNL     1      23.120   0.867  51.833  1.00  0.00     0.161 A 
ATOM     12  C   UNL     1      25.626   0.828  53.058  1.00  0.00     0.042 A 
ATOM     13  C   UNL     1      24.080   1.803  51.473  1.00  0.00     0.096 A 
ATOM     14  C   UNL     1      25.326   1.789  52.092  1.00  0.00     0.137 A 
ATOM     15  F   UNL     1      21.907   0.871  51.258  1.00  0.00    -0.204 F 
ATOM     16  F   UNL     1      26.270   2.676  51.754  1.00  0.00    -0.206 F 
BRANCH  13  17
ATOM     17  C   UNL     1      23.786   2.809  50.455  1.00  0.00     0.201 C 
ATOM     18  O   UNL     1      23.491   2.415  49.329  1.00  0.00    -0.288 OA
BRANCH  17  19
ATOM     19  C   UNL     1      23.851   4.222  50.818  1.00  0.00     0.050 A 
ATOM     20  C   UNL     1      23.032   4.895  51.717  1.00  0.00     0.097 A 
ATOM     21  C   UNL     1      24.772   5.196  50.305  1.00  0.00     0.031 A 
ATOM     22  N   UNL     1      23.431   6.208  51.772  1.00  0.00    -0.345 N 
ATOM     23  C   UNL     1      25.835   5.188  49.380  1.00  0.00     0.035 A 
ATOM     24  C   UNL     1      24.479   6.409  50.921  1.00  0.00     0.138 A 
ATOM     25  C   UNL     1      26.504   6.389  49.155  1.00  0.00     0.060 A 
ATOM     26  N   UNL     1      25.090   7.595  50.742  1.00  0.00    -0.237 NA
ATOM     27  C   UNL     1      26.103   7.529  49.842  1.00  0.00     0.134 A 
ATOM     28  H   UNL     1      23.027   6.934  52.346  1.00  0.00     0.167 HD
ATOM     29  Cl  UNL     1      27.810   6.456  48.039  1.00  0.00    -0.083 Cl
ENDBRANCH  17  19
ENDBRANCH  13  17
ENDBRANCH   1   9
TORSDOF 6
ENDMDL
MODEL 14
REMARK VINA RESULT:    -7.510      3.621      6.438
REMARK INTER + INTRA:         -11.409
REMARK INTER:                 -10.009
REMARK INTRA:                  -1.400
REMARK UNBOUND:                -1.265
REMARK SMILES CCCS(=O)(=O)Nc1ccc(F)c(C(=O)c2c[nH]c3ncc(Cl)cc23)c1F
REMARK SMILES IDX 7 1 4 3 5 4 6 5 3 6 2 7 1 8 8 9 9 10 26 11 10 12 13 13 11 14
REMARK SMILES IDX 27 15 12 16 14 17 15 18 16 19 17 20 25 21 18 22 24 23 19 24
REMARK SMILES IDX 22 25 20 26 21 27 23 29
REMARK H PARENT 7 2 18 28
ROOT
ATOM      1  N   UNL     1      26.232   7.584  50.697  1.00  0.00    -0.281 N 
ATOM      2  H   UNL     1      27.084   7.017  50.784  1.00  0.00     0.180 HD
ENDROOT
BRANCH   1   3
ATOM      3  S   UNL     1      26.397   8.497  49.269  1.00  0.00     0.232 S 
ATOM      4  O   UNL     1      26.291   9.905  49.586  1.00  0.00    -0.207 OA
ATOM      5  O   UNL     1      25.518   7.874  48.305  1.00  0.00    -0.207 OA
BRANCH   3   6
ATOM      6  C   UNL     1      28.088   8.141  48.805  1.00  0.00     0.159 C 
BRANCH   6   7
ATOM      7  C   UNL     1      28.199   7.100  47.699  1.00  0.00     0.015 C 
ATOM      8  C   UNL     1      28.728   5.780  48.236  1.00  0.00     0.005 C 
ENDBRANCH   6   7
ENDBRANCH   3   6
ENDBRANCH   1   3
BRANCH   1   9
ATOM      9  C   UNL     1      25.029   6.811  50.786  1.00  0.00     0.085 A 
ATOM     10  C   UNL     1      23.823   7.448  51.086  1.00  0.00     0.033 A 
ATOM     11  C   UNL     1      25.040   5.457  50.437  1.00  0.00     0.161 A 
ATOM     12  C   UNL     1      22.632   6.717  51.062  1.00  0.00     0.042 A 
ATOM     13  C   UNL     1      23.852   4.740  50.390  1.00  0.00     0.096 A 
ATOM     14  C   UNL     1      22.653   5.367  50.712  1.00  0.00     0.137 A 
ATOM     15  F   UNL     1      26.210   4.867  50.144  1.00  0.00    -0.204 F 
ATOM     16  F   UNL     1      21.494   4.698  50.665  1.00  0.00    -0.206 F 
BRANCH  13  17
ATOM     17  C   UNL     1      23.855   3.327  50.015  1.00  0.00     0.201 C 
ATOM     18  O   UNL     1      23.916   3.053  48.820  1.00  0.00    -0.288 OA
BRANCH  17  19
ATOM     19  C   UNL     1      23.789   2.316  51.068  1.00  0.00     0.050 A 
ATOM     20  C   UNL     1      22.704   1.510  51.388  1.00  0.00     0.097 A 
ATOM     21  C   UNL     1      24.835   1.967  51.986  1.00  0.00     0.031 A 
ATOM     22  N   UNL     1      23.059   0.694  52.434  1.00  0.00    -0.345 N 
ATOM     23  C   UNL     1      26.159   2.392  52.213  1.00  0.00     0.035 A 
ATOM     24  C   UNL     1      24.343   0.961  52.812  1.00  0.00     0.138 A 
ATOM     25  C   UNL     1      26.868   1.775  53.242  1.00  0.00     0.060 A 
ATOM     26  N   UNL     1      24.980   0.333  53.818  1.00  0.00    -0.237 NA
ATOM     27  C   UNL     1      26.249   0.781  53.991  1.00  0.00     0.134 A 
ATOM     28  H   UNL     1      22.478  -0.004  52.875  1.00  0.00     0.167 HD
ATOM     29  Cl  UNL     1      28.488   2.242  53.579  1.00  0.00    -0.083 Cl
ENDBRANCH  17  19
ENDBRANCH  13  17
ENDBRANCH   1   9
TORSDOF 6
ENDMDL
MODEL 15
REMARK VINA RESULT:    -7.495      3.262      6.587
REMARK INTER + INTRA:         -11.388
REMARK INTER:                 -10.303
REMARK INTRA:                  -1.085
REMARK UNBOUND:                -1.265
REMARK SMILES CCCS(=O)(=O)Nc1ccc(F)c(C(=O)c2c[nH]c3ncc(Cl)cc23)c1F
REMARK SMILES IDX 7 1 4 3 5 4 6 5 3 6 2 7 1 8 8 9 9 10 26 11 10 12 13 13 11 14
REMARK SMILES IDX 27 15 12 16 14 17 15 18 16 19 17 20 25 21 18 22 24 23 19 24
REMARK SMILES IDX 22 25 20 26 21 27 23 29
REMARK H PARENT 7 2 18 28
ROOT
ATOM      1  N   UNL     1      25.488   5.932  50.678  1.00  0.00    -0.281 N 
ATOM      2  H   UNL     1      26.467   5.753  50.423  1.00  0.00     0.180 HD
ENDROOT
BRANCH   1   3
ATOM      3  S   UNL     1      25.041   7.382  49.905  1.00  0.00     0.232 S 
ATOM      4  O   UNL     1      24.697   7.104  48.527  1.00  0.00    -0.207 OA
ATOM      5  O   UNL     1      26.070   8.339  50.246  1.00  0.00    -0.207 OA
BRANCH   3   6
ATOM      6  C   UNL     1      23.548   7.818  50.790  1.00  0.00     0.159 C 
BRANCH   6   7
ATOM      7  C   UNL     1      22.283   7.612  49.969  1.00  0.00     0.015 C 
ATOM      8  C   UNL     1      21.329   6.650  50.659  1.00  0.00     0.005 C 
ENDBRANCH   6   7
ENDBRANCH   3   6
ENDBRANCH   1   3
BRANCH   1   9
ATOM      9  C   UNL     1      24.625   4.818  50.420  1.00  0.00     0.085 A 
ATOM     10  C   UNL     1      24.569   4.273  49.135  1.00  0.00     0.033 A 
ATOM     11  C   UNL     1      23.951   4.196  51.476  1.00  0.00     0.161 A 
ATOM     12  C   UNL     1      23.815   3.119  48.907  1.00  0.00     0.042 A 
ATOM     13  C   UNL     1      23.223   3.035  51.250  1.00  0.00     0.096 A 
ATOM     14  C   UNL     1      23.147   2.505  49.966  1.00  0.00     0.137 A 
ATOM     15  F   UNL     1      24.025   4.732  52.705  1.00  0.00    -0.204 F 
ATOM     16  F   UNL     1      22.458   1.382  49.727  1.00  0.00    -0.206 F 
BRANCH  13  17
ATOM     17  C   UNL     1      22.526   2.374  52.352  1.00  0.00     0.201 C 
ATOM     18  O   UNL     1      21.437   2.828  52.695  1.00  0.00    -0.288 OA
BRANCH  17  19
ATOM     19  C   UNL     1      23.147   1.215  52.987  1.00  0.00     0.050 A 
ATOM     20  C   UNL     1      22.527   0.025  53.348  1.00  0.00     0.097 A 
ATOM     21  C   UNL     1      24.523   1.084  53.372  1.00  0.00     0.031 A 
ATOM     22  N   UNL     1      23.466  -0.804  53.910  1.00  0.00    -0.345 N 
ATOM     23  C   UNL     1      25.670   1.901  53.303  1.00  0.00     0.035 A 
ATOM     24  C   UNL     1      24.678  -0.177  53.938  1.00  0.00     0.138 A 
ATOM     25  C   UNL     1      26.862   1.384  53.806  1.00  0.00     0.060 A 
ATOM     26  N   UNL     1      25.801  -0.726  54.438  1.00  0.00    -0.237 NA
ATOM     27  C   UNL     1      26.872   0.102  54.346  1.00  0.00     0.134 A 
ATOM     28  H   UNL     1      23.310  -1.739  54.259  1.00  0.00     0.167 HD
ATOM     29  Cl  UNL     1      28.301   2.322  53.757  1.00  0.00    -0.083 Cl
ENDBRANCH  17  19
ENDBRANCH  13  17
ENDBRANCH   1   9
TORSDOF 6
ENDMDL
MODEL 16
REMARK VINA RESULT:    -7.469      2.517      2.987
REMARK INTER + INTRA:         -11.354
REMARK INTER:                 -10.020
REMARK INTRA:                  -1.333
REMARK UNBOUND:                -1.265
REMARK SMILES CCCS(=O)(=O)Nc1ccc(F)c(C(=O)c2c[nH]c3ncc(Cl)cc23)c1F
REMARK SMILES IDX 7 1 4 3 5 4 6 5 3 6 2 7 1 8 8 9 9 10 26 11 10 12 13 13 11 14
REMARK SMILES IDX 27 15 12 16 14 17 15 18 16 19 17 20 25 21 18 22 24 23 19 24
REMARK SMILES IDX 22 25 20 26 21 27 23 29
REMARK H PARENT 7 2 18 28
ROOT
ATOM      1  N   UNL     1      26.178  -0.388  54.140  1.00  0.00    -0.281 N 
ATOM      2  H   UNL     1      25.929  -1.126  54.809  1.00  0.00     0.180 HD
ENDROOT
BRANCH   1   3
ATOM      3  S   UNL     1      27.221  -1.099  52.997  1.00  0.00     0.232 S 
ATOM      4  O   UNL     1      26.938  -0.554  51.686  1.00  0.00    -0.207 OA
ATOM      5  O   UNL     1      27.164  -2.522  53.248  1.00  0.00    -0.207 OA
BRANCH   3   6
ATOM      6  C   UNL     1      28.816  -0.493  53.536  1.00  0.00     0.159 C 
BRANCH   6   7
ATOM      7  C   UNL     1      28.727   0.450  54.729  1.00  0.00     0.015 C 
ATOM      8  C   UNL     1      29.309   1.814  54.397  1.00  0.00     0.005 C 
ENDBRANCH   6   7
ENDBRANCH   3   6
ENDBRANCH   1   3
BRANCH   1   9
ATOM      9  C   UNL     1      25.039   0.280  53.586  1.00  0.00     0.085 A 
ATOM     10  C   UNL     1      23.834  -0.413  53.448  1.00  0.00     0.033 A 
ATOM     11  C   UNL     1      25.095   1.651  53.315  1.00  0.00     0.161 A 
ATOM     12  C   UNL     1      22.693   0.266  53.013  1.00  0.00     0.042 A 
ATOM     13  C   UNL     1      23.953   2.328  52.908  1.00  0.00     0.096 A 
ATOM     14  C   UNL     1      22.758   1.634  52.748  1.00  0.00     0.137 A 
ATOM     15  F   UNL     1      26.261   2.300  53.463  1.00  0.00    -0.204 F 
ATOM     16  F   UNL     1      21.642   2.268  52.364  1.00  0.00    -0.206 F 
BRANCH  13  17
ATOM     17  C   UNL     1      24.002   3.763  52.636  1.00  0.00     0.201 C 
ATOM     18  O   UNL     1      23.866   4.530  53.585  1.00  0.00    -0.288 OA
BRANCH  17  19
ATOM     19  C   UNL     1      24.210   4.216  51.262  1.00  0.00     0.050 A 
ATOM     20  C   UNL     1      25.161   3.751  50.362  1.00  0.00     0.097 A 
ATOM     21  C   UNL     1      23.475   5.241  50.578  1.00  0.00     0.031 A 
ATOM     22  N   UNL     1      25.016   4.435  49.181  1.00  0.00    -0.345 N 
ATOM     23  C   UNL     1      22.408   6.102  50.903  1.00  0.00     0.035 A 
ATOM     24  C   UNL     1      24.004   5.344  49.295  1.00  0.00     0.138 A 
ATOM     25  C   UNL     1      21.969   6.986  49.919  1.00  0.00     0.060 A 
ATOM     26  N   UNL     1      23.621   6.177  48.309  1.00  0.00    -0.237 NA
ATOM     27  C   UNL     1      22.593   6.981  48.676  1.00  0.00     0.134 A 
ATOM     28  H   UNL     1      25.561   4.306  48.341  1.00  0.00     0.167 HD
ATOM     29  Cl  UNL     1      20.673   8.067  50.242  1.00  0.00    -0.083 Cl
ENDBRANCH  17  19
ENDBRANCH  13  17
ENDBRANCH   1   9
TORSDOF 6
ENDMDL
MODEL 17
REMARK VINA RESULT:    -7.432      6.060      8.237
REMARK INTER + INTRA:         -11.303
REMARK INTER:                  -9.804
REMARK INTRA:                  -1.500
REMARK UNBOUND:                -1.265
REMARK SMILES CCCS(=O)(=O)Nc1ccc(F)c(C(=O)c2c[nH]c3ncc(Cl)cc23)c1F
REMARK SMILES IDX 7 1 4 3 5 4 6 5 3 6 2 7 1 8 8 9 9 10 26 11 10 12 13 13 11 14
REMARK SMILES IDX 27 15 12 16 14 17 15 18 16 19 17 20 25 21 18 22 24 23 19 24
REMARK SMILES IDX 22 25 20 26 21 27 23 29
REMARK H PARENT 7 2 18 28
ROOT
ATOM      1  N   UNL     1      32.601   5.245  49.049  1.00  0.00    -0.281 N 
ATOM      2  H   UNL     1      32.120   4.385  48.760  1.00  0.00     0.180 HD
ENDROOT
BRANCH   1   3
ATOM      3  S   UNL     1      34.010   5.358  48.100  1.00  0.00     0.232 S 
ATOM      4  O   UNL     1      35.112   5.799  48.928  1.00  0.00    -0.207 OA
ATOM      5  O   UNL     1      33.623   6.086  46.912  1.00  0.00    -0.207 OA
BRANCH   3   6
ATOM      6  C   UNL     1      34.281   3.647  47.650  1.00  0.00     0.159 C 
BRANCH   6   7
ATOM      7  C   UNL     1      33.028   2.790  47.772  1.00  0.00     0.015 C 
ATOM      8  C   UNL     1      32.201   2.838  46.498  1.00  0.00     0.005 C 
ENDBRANCH   6   7
ENDBRANCH   3   6
ENDBRANCH   1   3
BRANCH   1   9
ATOM      9  C   UNL     1      31.756   6.402  49.018  1.00  0.00     0.085 A 
ATOM     10  C   UNL     1      32.178   7.580  49.639  1.00  0.00     0.033 A 
ATOM     11  C   UNL     1      30.585   6.393  48.253  1.00  0.00     0.161 A 
ATOM     12  C   UNL     1      31.410   8.740  49.514  1.00  0.00     0.042 A 
ATOM     13  C   UNL     1      29.837   7.554  48.111  1.00  0.00     0.096 A 
ATOM     14  C   UNL     1      30.244   8.722  48.749  1.00  0.00     0.137 A 
ATOM     15  F   UNL     1      30.203   5.253  47.657  1.00  0.00    -0.204 F 
ATOM     16  F   UNL     1      29.543   9.855  48.618  1.00  0.00    -0.206 F 
BRANCH  13  17
ATOM     17  C   UNL     1      28.619   7.554  47.303  1.00  0.00     0.201 C 
ATOM     18  O   UNL     1      28.743   7.583  46.081  1.00  0.00    -0.288 OA
BRANCH  17  19
ATOM     19  C   UNL     1      27.324   7.518  47.977  1.00  0.00     0.050 A 
ATOM     20  C   UNL     1      26.422   8.567  48.115  1.00  0.00     0.097 A 
ATOM     21  C   UNL     1      26.734   6.391  48.641  1.00  0.00     0.031 A 
ATOM     22  N   UNL     1      25.328   8.113  48.810  1.00  0.00    -0.345 N 
ATOM     23  C   UNL     1      27.108   5.052  48.876  1.00  0.00     0.035 A 
ATOM     24  C   UNL     1      25.502   6.800  49.140  1.00  0.00     0.138 A 
ATOM     25  C   UNL     1      26.219   4.249  49.587  1.00  0.00     0.060 A 
ATOM     26  N   UNL     1      24.607   6.070  49.832  1.00  0.00    -0.237 NA
ATOM     27  C   UNL     1      25.018   4.792  50.029  1.00  0.00     0.134 A 
ATOM     28  H   UNL     1      24.506   8.648  49.053  1.00  0.00     0.167 HD
ATOM     29  Cl  UNL     1      26.608   2.607  49.913  1.00  0.00    -0.083 Cl
ENDBRANCH  17  19
ENDBRANCH  13  17
ENDBRANCH   1   9
TORSDOF 6
ENDMDL
MODEL 18
REMARK VINA RESULT:    -7.410      3.320      5.092
REMARK INTER + INTRA:         -11.275
REMARK INTER:                 -10.170
REMARK INTRA:                  -1.105
REMARK UNBOUND:                -1.265
REMARK SMILES CCCS(=O)(=O)Nc1ccc(F)c(C(=O)c2c[nH]c3ncc(Cl)cc23)c1F
REMARK SMILES IDX 7 1 4 3 5 4 6 5 3 6 2 7 1 8 8 9 9 10 26 11 10 12 13 13 11 14
REMARK SMILES IDX 27 15 12 16 14 17 15 18 16 19 17 20 25 21 18 22 24 23 19 24
REMARK SMILES IDX 22 25 20 26 21 27 23 29
REMARK H PARENT 7 2 18 28
ROOT
ATOM      1  N   UNL     1      23.616   2.470  52.886  1.00  0.00    -0.281 N 
ATOM      2  H   UNL     1      23.177   3.251  53.389  1.00  0.00     0.180 HD
ENDROOT
BRANCH   1   3
ATOM      3  S   UNL     1      22.348   1.510  52.278  1.00  0.00     0.232 S 
ATOM      4  O   UNL     1      22.586   1.233  50.877  1.00  0.00    -0.207 OA
ATOM      5  O   UNL     1      21.128   2.146  52.722  1.00  0.00    -0.207 OA
BRANCH   3   6
ATOM      6  C   UNL     1      22.565  -0.006  53.205  1.00  0.00     0.159 C 
BRANCH   6   7
ATOM      7  C   UNL     1      21.457  -0.250  54.221  1.00  0.00     0.015 C 
ATOM      8  C   UNL     1      21.228  -1.737  54.437  1.00  0.00     0.005 C 
ENDBRANCH   6   7
ENDBRANCH   3   6
ENDBRANCH   1   3
BRANCH   1   9
ATOM      9  C   UNL     1      24.575   2.894  51.910  1.00  0.00     0.085 A 
ATOM     10  C   UNL     1      25.681   2.086  51.636  1.00  0.00     0.033 A 
ATOM     11  C   UNL     1      24.334   4.037  51.142  1.00  0.00     0.161 A 
ATOM     12  C   UNL     1      26.557   2.440  50.607  1.00  0.00     0.042 A 
ATOM     13  C   UNL     1      25.193   4.373  50.104  1.00  0.00     0.096 A 
ATOM     14  C   UNL     1      26.307   3.582  49.845  1.00  0.00     0.137 A 
ATOM     15  F   UNL     1      23.260   4.794  51.417  1.00  0.00    -0.204 F 
ATOM     16  F   UNL     1      27.144   3.882  48.844  1.00  0.00    -0.206 F 
BRANCH  13  17
ATOM     17  C   UNL     1      24.939   5.560  49.289  1.00  0.00     0.201 C 
ATOM     18  O   UNL     1      24.210   5.435  48.309  1.00  0.00    -0.288 OA
BRANCH  17  19
ATOM     19  C   UNL     1      25.556   6.827  49.675  1.00  0.00     0.050 A 
ATOM     20  C   UNL     1      25.030   7.788  50.529  1.00  0.00     0.097 A 
ATOM     21  C   UNL     1      26.825   7.330  49.234  1.00  0.00     0.031 A 
ATOM     22  N   UNL     1      25.928   8.823  50.627  1.00  0.00    -0.345 N 
ATOM     23  C   UNL     1      27.847   6.874  48.377  1.00  0.00     0.035 A 
ATOM     24  C   UNL     1      27.017   8.565  49.846  1.00  0.00     0.138 A 
ATOM     25  C   UNL     1      28.963   7.692  48.210  1.00  0.00     0.060 A 
ATOM     26  N   UNL     1      28.070   9.393  49.721  1.00  0.00    -0.237 NA
ATOM     27  C   UNL     1      29.022   8.905  48.886  1.00  0.00     0.134 A 
ATOM     28  H   UNL     1      25.822   9.659  51.184  1.00  0.00     0.167 HD
ATOM     29  Cl  UNL     1      30.248   7.202  47.180  1.00  0.00    -0.083 Cl
ENDBRANCH  17  19
ENDBRANCH  13  17
ENDBRANCH   1   9
TORSDOF 6
ENDMDL
MODEL 19
REMARK VINA RESULT:    -7.379      3.641      5.473
REMARK INTER + INTRA:         -11.232
REMARK INTER:                  -9.952
REMARK INTRA:                  -1.281
REMARK UNBOUND:                -1.265
REMARK SMILES CCCS(=O)(=O)Nc1ccc(F)c(C(=O)c2c[nH]c3ncc(Cl)cc23)c1F
REMARK SMILES IDX 7 1 4 3 5 4 6 5 3 6 2 7 1 8 8 9 9 10 26 11 10 12 13 13 11 14
REMARK SMILES IDX 27 15 12 16 14 17 15 18 16 19 17 20 25 21 18 22 24 23 19 24
REMARK SMILES IDX 22 25 20 26 21 27 23 29
REMARK H PARENT 7 2 18 28
ROOT
ATOM      1  N   UNL     1      25.608   3.000  52.054  1.00  0.00    -0.281 N 
ATOM      2  H   UNL     1      26.183   3.818  52.287  1.00  0.00     0.180 HD
ENDROOT
BRANCH   1   3
ATOM      3  S   UNL     1      26.050   1.768  53.144  1.00  0.00     0.232 S 
ATOM      4  O   UNL     1      24.856   1.137  53.664  1.00  0.00    -0.207 OA
ATOM      5  O   UNL     1      27.032   2.361  54.025  1.00  0.00    -0.207 OA
BRANCH   3   6
ATOM      6  C   UNL     1      26.884   0.612  52.064  1.00  0.00     0.159 C 
BRANCH   6   7
ATOM      7  C   UNL     1      26.999  -0.787  52.656  1.00  0.00     0.015 C 
ATOM      8  C   UNL     1      28.371  -1.015  53.269  1.00  0.00     0.005 C 
ENDBRANCH   6   7
ENDBRANCH   3   6
ENDBRANCH   1   3
BRANCH   1   9
ATOM      9  C   UNL     1      24.206   3.290  52.007  1.00  0.00     0.085 A 
ATOM     10  C   UNL     1      23.716   4.428  52.652  1.00  0.00     0.033 A 
ATOM     11  C   UNL     1      23.358   2.518  51.206  1.00  0.00     0.161 A 
ATOM     12  C   UNL     1      22.369   4.775  52.513  1.00  0.00     0.042 A 
ATOM     13  C   UNL     1      22.026   2.880  51.051  1.00  0.00     0.096 A 
ATOM     14  C   UNL     1      21.532   3.999  51.712  1.00  0.00     0.137 A 
ATOM     15  F   UNL     1      23.851   1.433  50.588  1.00  0.00    -0.204 F 
ATOM     16  F   UNL     1      20.253   4.372  51.570  1.00  0.00    -0.206 F 
BRANCH  13  17
ATOM     17  C   UNL     1      21.138   2.083  50.206  1.00  0.00     0.201 C 
ATOM     18  O   UNL     1      21.283   2.164  48.989  1.00  0.00    -0.288 OA
BRANCH  17  19
ATOM     19  C   UNL     1      20.131   1.236  50.840  1.00  0.00     0.050 A 
ATOM     20  C   UNL     1      18.800   1.093  50.465  1.00  0.00     0.097 A 
ATOM     21  C   UNL     1      20.319   0.392  51.985  1.00  0.00     0.031 A 
ATOM     22  N   UNL     1      18.200   0.199  51.317  1.00  0.00    -0.345 N 
ATOM     23  C   UNL     1      21.396   0.079  52.839  1.00  0.00     0.035 A 
ATOM     24  C   UNL     1      19.103  -0.231  52.246  1.00  0.00     0.138 A 
ATOM     25  C   UNL     1      21.158  -0.824  53.873  1.00  0.00     0.060 A 
ATOM     26  N   UNL     1      18.818  -1.107  53.227  1.00  0.00    -0.237 NA
ATOM     27  C   UNL     1      19.888  -1.371  54.017  1.00  0.00     0.134 A 
ATOM     28  H   UNL     1      17.239  -0.109  51.284  1.00  0.00     0.167 HD
ATOM     29  Cl  UNL     1      22.423  -1.252  54.955  1.00  0.00    -0.083 Cl
ENDBRANCH  17  19
ENDBRANCH  13  17
ENDBRANCH   1   9
TORSDOF 6
ENDMDL
MODEL 20
REMARK VINA RESULT:    -7.294      3.003      4.244
REMARK INTER + INTRA:         -11.117
REMARK INTER:                  -9.932
REMARK INTRA:                  -1.185
REMARK UNBOUND:                -1.265
REMARK SMILES CCCS(=O)(=O)Nc1ccc(F)c(C(=O)c2c[nH]c3ncc(Cl)cc23)c1F
REMARK SMILES IDX 7 1 4 3 5 4 6 5 3 6 2 7 1 8 8 9 9 10 26 11 10 12 13 13 11 14
REMARK SMILES IDX 27 15 12 16 14 17 15 18 16 19 17 20 25 21 18 22 24 23 19 24
REMARK SMILES IDX 22 25 20 26 21 27 23 29
REMARK H PARENT 7 2 18 28
ROOT
ATOM      1  N   UNL     1      26.451   1.487  51.822  1.00  0.00    -0.281 N 
ATOM      2  H   UNL     1      26.999   0.823  51.261  1.00  0.00     0.180 HD
ENDROOT
BRANCH   1   3
ATOM      3  S   UNL     1      27.322   1.743  53.262  1.00  0.00     0.232 S 
ATOM      4  O   UNL     1      26.457   2.364  54.242  1.00  0.00    -0.207 OA
ATOM      5  O   UNL     1      28.568   2.358  52.860  1.00  0.00    -0.207 OA
BRANCH   3   6
ATOM      6  C   UNL     1      27.662   0.065  53.782  1.00  0.00     0.159 C 
BRANCH   6   7
ATOM      7  C   UNL     1      29.031  -0.096  54.430  1.00  0.00     0.015 C 
ATOM      8  C   UNL     1      29.921  -1.020  53.615  1.00  0.00     0.005 C 
ENDBRANCH   6   7
ENDBRANCH   3   6
ENDBRANCH   1   3
BRANCH   1   9
ATOM      9  C   UNL     1      26.102   2.678  51.106  1.00  0.00     0.085 A 
ATOM     10  C   UNL     1      26.890   3.090  50.030  1.00  0.00     0.033 A 
ATOM     11  C   UNL     1      24.906   3.343  51.396  1.00  0.00     0.161 A 
ATOM     12  C   UNL     1      26.491   4.186  49.260  1.00  0.00     0.042 A 
ATOM     13  C   UNL     1      24.500   4.417  50.614  1.00  0.00     0.096 A 
ATOM     14  C   UNL     1      25.296   4.843  49.556  1.00  0.00     0.137 A 
ATOM     15  F   UNL     1      24.160   2.925  52.430  1.00  0.00    -0.204 F 
ATOM     16  F   UNL     1      24.919   5.870  48.783  1.00  0.00    -0.206 F 
BRANCH  13  17
ATOM     17  C   UNL     1      23.246   5.108  50.904  1.00  0.00     0.201 C 
ATOM     18  O   UNL     1      23.313   6.230  51.401  1.00  0.00    -0.288 OA
BRANCH  17  19
ATOM     19  C   UNL     1      21.983   4.444  50.591  1.00  0.00     0.050 A 
ATOM     20  C   UNL     1      20.997   4.055  51.489  1.00  0.00     0.097 A 
ATOM     21  C   UNL     1      21.520   4.053  49.291  1.00  0.00     0.031 A 
ATOM     22  N   UNL     1      19.972   3.470  50.787  1.00  0.00    -0.345 N 
ATOM     23  C   UNL     1      22.020   4.140  47.976  1.00  0.00     0.035 A 
ATOM     24  C   UNL     1      20.274   3.456  49.456  1.00  0.00     0.138 A 
ATOM     25  C   UNL     1      21.231   3.622  46.950  1.00  0.00     0.060 A 
ATOM     26  N   UNL     1      19.473   2.941  48.505  1.00  0.00    -0.237 NA
ATOM     27  C   UNL     1      20.002   3.051  47.261  1.00  0.00     0.134 A 
ATOM     28  H   UNL     1      19.115   3.098  51.171  1.00  0.00     0.167 HD
ATOM     29  Cl  UNL     1      21.776   3.692  45.321  1.00  0.00    -0.083 Cl
ENDBRANCH  17  19
ENDBRANCH  13  17
ENDBRANCH   1   9
TORSDOF 6
ENDMDL
