MODEL 1
REMARK VINA RESULT:    -8.595      0.000      0.000
REMARK INTER + INTRA:         -14.315
REMARK INTER:                 -12.614
REMARK INTRA:                  -1.701
REMARK UNBOUND:                -1.701
REMARK SMILES CN(C)C/C=C/C(=O)Nc1cc2c(Nc3ccc(F)c(Cl)c3)ncnc2cc1O[C@H]1CCOC1
REMARK SMILES IDX 7 1 8 2 9 3 6 5 5 6 4 7 2 8 1 9 3 10 10 11 11 12 28 13 12 14
REMARK SMILES IDX 27 15 13 16 26 17 23 18 25 19 24 20 29 21 30 22 31 23 34 24
REMARK SMILES IDX 32 25 33 26 14 27 15 29 16 30 22 31 17 32 20 33 18 34 21 35
REMARK SMILES IDX 19 36
REMARK H PARENT 9 4 14 28
ROOT
ATOM      1  C   UNL     1      25.476   5.026  49.616  1.00  0.00     0.248 C 
ATOM      2  O   UNL     1      24.968   5.692  50.511  1.00  0.00    -0.270 OA
ATOM      3  N   UNL     1      25.097   3.776  49.196  1.00  0.00    -0.319 N 
ATOM      4  H   UNL     1      25.514   3.411  48.346  1.00  0.00     0.170 HD
ENDROOT
BRANCH   1   5
ATOM      5  C   UNL     1      26.572   5.628  48.808  1.00  0.00     0.068 C 
ATOM      6  C   UNL     1      27.828   5.148  48.785  1.00  0.00    -0.006 C 
BRANCH   6   7
ATOM      7  C   UNL     1      29.037   5.667  48.052  1.00  0.00     0.111 C 
BRANCH   7   8
ATOM      8  N   UNL     1      30.391   5.363  48.492  1.00  0.00    -0.306 NA
ATOM      9  C   UNL     1      31.068   6.450  49.182  1.00  0.00     0.105 C 
ATOM     10  C   UNL     1      31.227   4.693  47.510  1.00  0.00     0.105 C 
ENDBRANCH   7   8
ENDBRANCH   6   7
ENDBRANCH   1   5
BRANCH   3  11
ATOM     11  C   UNL     1      24.125   2.924  49.762  1.00  0.00     0.085 A 
ATOM     12  C   UNL     1      24.277   2.295  50.997  1.00  0.00     0.044 A 
ATOM     13  C   UNL     1      22.955   2.700  49.018  1.00  0.00     0.145 A 
ATOM     14  C   UNL     1      23.262   1.452  51.517  1.00  0.00     0.045 A 
ATOM     15  C   UNL     1      21.974   1.845  49.523  1.00  0.00     0.077 A 
ATOM     16  C   UNL     1      23.312   0.795  52.765  1.00  0.00     0.141 A 
ATOM     17  C   UNL     1      22.108   1.224  50.759  1.00  0.00     0.080 A 
ATOM     18  N   UNL     1      22.321  -0.014  53.178  1.00  0.00    -0.219 NA
ATOM     19  N   UNL     1      21.117   0.429  51.170  1.00  0.00    -0.236 NA
ATOM     20  C   UNL     1      21.275  -0.159  52.361  1.00  0.00     0.224 A 
BRANCH  13  21
ATOM     21  O   UNL     1      22.892   3.362  47.815  1.00  0.00    -0.486 OA
BRANCH  21  22
ATOM     22  C   UNL     1      21.731   4.152  47.522  1.00  0.00     0.201 C 
ATOM     23  C   UNL     1      21.901   5.484  48.222  1.00  0.00     0.076 C 
ATOM     24  C   UNL     1      21.709   4.580  46.059  1.00  0.00     0.205 C 
ATOM     25  C   UNL     1      22.812   6.232  47.273  1.00  0.00     0.164 C 
ATOM     26  O   UNL     1      22.478   5.794  45.951  1.00  0.00    -0.377 OA
ENDBRANCH  21  22
ENDBRANCH  13  21
BRANCH  16  27
ATOM     27  N   UNL     1      24.445   0.991  53.602  1.00  0.00    -0.340 N 
ATOM     28  H   UNL     1      24.147   1.020  54.572  1.00  0.00     0.168 HD
BRANCH  27  29
ATOM     29  C   UNL     1      25.753   0.474  53.467  1.00  0.00     0.041 A 
ATOM     30  C   UNL     1      25.917  -0.814  52.927  1.00  0.00     0.029 A 
ATOM     31  C   UNL     1      26.889   1.138  53.948  1.00  0.00     0.049 A 
ATOM     32  C   UNL     1      27.182  -1.395  52.816  1.00  0.00     0.043 A 
ATOM     33  C   UNL     1      28.156   0.558  53.839  1.00  0.00     0.078 A 
ATOM     34  C   UNL     1      28.297  -0.703  53.269  1.00  0.00     0.141 A 
ATOM     35  Cl  UNL     1      29.533   1.412  54.424  1.00  0.00    -0.081 Cl
ATOM     36  F   UNL     1      29.503  -1.277  53.156  1.00  0.00    -0.205 F 
ENDBRANCH  27  29
ENDBRANCH  16  27
ENDBRANCH   3  11
TORSDOF 8
ENDMDL
MODEL 2
REMARK VINA RESULT:    -8.523      1.611      1.929
REMARK INTER + INTRA:         -14.210
REMARK INTER:                 -12.635
REMARK INTRA:                  -1.575
REMARK UNBOUND:                -1.701
REMARK SMILES CN(C)C/C=C/C(=O)Nc1cc2c(Nc3ccc(F)c(Cl)c3)ncnc2cc1O[C@H]1CCOC1
REMARK SMILES IDX 7 1 8 2 9 3 6 5 5 6 4 7 2 8 1 9 3 10 10 11 11 12 28 13 12 14
REMARK SMILES IDX 27 15 13 16 26 17 23 18 25 19 24 20 29 21 30 22 31 23 34 24
REMARK SMILES IDX 32 25 33 26 14 27 15 29 16 30 22 31 17 32 20 33 18 34 21 35
REMARK SMILES IDX 19 36
REMARK H PARENT 9 4 14 28
ROOT
ATOM      1  C   UNL     1      26.614   4.283  49.221  1.00  0.00     0.248 C 
ATOM      2  O   UNL     1      27.302   3.275  49.118  1.00  0.00    -0.270 OA
ATOM      3  N   UNL     1      25.391   4.393  49.833  1.00  0.00    -0.319 N 
ATOM      4  H   UNL     1      25.007   5.323  49.970  1.00  0.00     0.170 HD
ENDROOT
BRANCH   1   5
ATOM      5  C   UNL     1      27.155   5.575  48.717  1.00  0.00     0.068 C 
ATOM      6  C   UNL     1      28.428   5.743  48.318  1.00  0.00    -0.006 C 
BRANCH   6   7
ATOM      7  C   UNL     1      29.120   6.986  47.823  1.00  0.00     0.111 C 
BRANCH   7   8
ATOM      8  N   UNL     1      29.632   7.995  48.738  1.00  0.00    -0.306 NA
ATOM      9  C   UNL     1      28.676   9.025  49.111  1.00  0.00     0.105 C 
ATOM     10  C   UNL     1      30.948   8.520  48.410  1.00  0.00     0.105 C 
ENDBRANCH   7   8
ENDBRANCH   6   7
ENDBRANCH   1   5
BRANCH   3  11
ATOM     11  C   UNL     1      24.594   3.364  50.378  1.00  0.00     0.085 A 
ATOM     12  C   UNL     1      24.923   2.669  51.540  1.00  0.00     0.044 A 
ATOM     13  C   UNL     1      23.419   3.027  49.687  1.00  0.00     0.145 A 
ATOM     14  C   UNL     1      24.080   1.645  52.043  1.00  0.00     0.045 A 
ATOM     15  C   UNL     1      22.608   1.998  50.171  1.00  0.00     0.077 A 
ATOM     16  C   UNL     1      24.313   0.906  53.222  1.00  0.00     0.141 A 
ATOM     17  C   UNL     1      22.919   1.308  51.337  1.00  0.00     0.080 A 
ATOM     18  N   UNL     1      23.480  -0.072  53.620  1.00  0.00    -0.219 NA
ATOM     19  N   UNL     1      22.085   0.344  51.734  1.00  0.00    -0.236 NA
ATOM     20  C   UNL     1      22.410  -0.306  52.857  1.00  0.00     0.224 A 
BRANCH  13  21
ATOM     21  O   UNL     1      23.174   3.766  48.554  1.00  0.00    -0.486 OA
BRANCH  21  22
ATOM     22  C   UNL     1      21.938   4.486  48.452  1.00  0.00     0.201 C 
ATOM     23  C   UNL     1      22.108   5.786  49.208  1.00  0.00     0.076 C 
ATOM     24  C   UNL     1      21.708   4.990  47.032  1.00  0.00     0.205 C 
ATOM     25  C   UNL     1      22.844   6.648  48.205  1.00  0.00     0.164 C 
ATOM     26  O   UNL     1      22.378   6.259  46.908  1.00  0.00    -0.377 OA
ENDBRANCH  21  22
ENDBRANCH  13  21
BRANCH  16  27
ATOM     27  N   UNL     1      25.463   1.202  54.005  1.00  0.00    -0.340 N 
ATOM     28  H   UNL     1      25.184   1.358  54.968  1.00  0.00     0.168 HD
BRANCH  27  29
ATOM     29  C   UNL     1      26.766   0.664  53.912  1.00  0.00     0.041 A 
ATOM     30  C   UNL     1      27.865   1.521  54.101  1.00  0.00     0.029 A 
ATOM     31  C   UNL     1      27.019  -0.661  53.531  1.00  0.00     0.049 A 
ATOM     32  C   UNL     1      29.175   1.054  53.973  1.00  0.00     0.043 A 
ATOM     33  C   UNL     1      28.329  -1.130  53.401  1.00  0.00     0.078 A 
ATOM     34  C   UNL     1      29.400  -0.272  53.627  1.00  0.00     0.141 A 
ATOM     35  Cl  UNL     1      28.602  -2.769  52.949  1.00  0.00    -0.081 Cl
ATOM     36  F   UNL     1      30.665  -0.702  53.506  1.00  0.00    -0.205 F 
ENDBRANCH  27  29
ENDBRANCH  16  27
ENDBRANCH   3  11
TORSDOF 8
ENDMDL
MODEL 3
REMARK VINA RESULT:    -8.489      1.194      1.322
REMARK INTER + INTRA:         -14.160
REMARK INTER:                 -12.827
REMARK INTRA:                  -1.333
REMARK UNBOUND:                -1.701
REMARK SMILES CN(C)C/C=C/C(=O)Nc1cc2c(Nc3ccc(F)c(Cl)c3)ncnc2cc1O[C@H]1CCOC1
REMARK SMILES IDX 7 1 8 2 9 3 6 5 5 6 4 7 2 8 1 9 3 10 10 11 11 12 28 13 12 14
REMARK SMILES IDX 27 15 13 16 26 17 23 18 25 19 24 20 29 21 30 22 31 23 34 24
REMARK SMILES IDX 32 25 33 26 14 27 15 29 16 30 22 31 17 32 20 33 18 34 21 35
REMARK SMILES IDX 19 36
REMARK H PARENT 9 4 14 28
ROOT
ATOM      1  C   UNL     1      26.357   4.336  49.233  1.00  0.00     0.248 C 
ATOM      2  O   UNL     1      27.076   3.355  49.383  1.00  0.00    -0.270 OA
ATOM      3  N   UNL     1      25.020   4.438  49.523  1.00  0.00    -0.319 N 
ATOM      4  H   UNL     1      24.591   5.357  49.486  1.00  0.00     0.170 HD
ENDROOT
BRANCH   1   5
ATOM      5  C   UNL     1      26.972   5.610  48.766  1.00  0.00     0.068 C 
ATOM      6  C   UNL     1      28.247   5.713  48.353  1.00  0.00    -0.006 C 
BRANCH   6   7
ATOM      7  C   UNL     1      29.009   6.928  47.892  1.00  0.00     0.111 C 
BRANCH   7   8
ATOM      8  N   UNL     1      29.518   7.917  48.830  1.00  0.00    -0.306 NA
ATOM      9  C   UNL     1      28.562   8.943  49.216  1.00  0.00     0.105 C 
ATOM     10  C   UNL     1      30.837   8.444  48.521  1.00  0.00     0.105 C 
ENDBRANCH   7   8
ENDBRANCH   6   7
ENDBRANCH   1   5
BRANCH   3  11
ATOM     11  C   UNL     1      24.142   3.418  49.947  1.00  0.00     0.085 A 
ATOM     12  C   UNL     1      24.327   2.677  51.113  1.00  0.00     0.044 A 
ATOM     13  C   UNL     1      23.036   3.141  49.127  1.00  0.00     0.145 A 
ATOM     14  C   UNL     1      23.408   1.665  51.490  1.00  0.00     0.045 A 
ATOM     15  C   UNL     1      22.151   2.123  49.488  1.00  0.00     0.077 A 
ATOM     16  C   UNL     1      23.495   0.882  52.661  1.00  0.00     0.141 A 
ATOM     17  C   UNL     1      22.317   1.388  50.656  1.00  0.00     0.080 A 
ATOM     18  N   UNL     1      22.597  -0.081  52.935  1.00  0.00    -0.219 NA
ATOM     19  N   UNL     1      21.420   0.439  50.930  1.00  0.00    -0.236 NA
ATOM     20  C   UNL     1      21.607  -0.256  52.058  1.00  0.00     0.224 A 
BRANCH  13  21
ATOM     21  O   UNL     1      22.933   3.922  48.001  1.00  0.00    -0.486 OA
BRANCH  21  22
ATOM     22  C   UNL     1      21.666   4.008  47.334  1.00  0.00     0.201 C 
ATOM     23  C   UNL     1      21.278   5.471  47.289  1.00  0.00     0.076 C 
ATOM     24  C   UNL     1      21.800   3.686  45.850  1.00  0.00     0.205 C 
ATOM     25  C   UNL     1      22.081   5.981  46.112  1.00  0.00     0.164 C 
ATOM     26  O   UNL     1      22.163   4.905  45.172  1.00  0.00    -0.377 OA
ENDBRANCH  21  22
ENDBRANCH  13  21
BRANCH  16  27
ATOM     27  N   UNL     1      24.565   1.117  53.568  1.00  0.00    -0.340 N 
ATOM     28  H   UNL     1      24.209   1.105  54.518  1.00  0.00     0.168 HD
BRANCH  27  29
ATOM     29  C   UNL     1      25.904   0.674  53.499  1.00  0.00     0.041 A 
ATOM     30  C   UNL     1      26.165  -0.607  52.983  1.00  0.00     0.029 A 
ATOM     31  C   UNL     1      26.977   1.405  54.026  1.00  0.00     0.049 A 
ATOM     32  C   UNL     1      27.465  -1.117  52.937  1.00  0.00     0.043 A 
ATOM     33  C   UNL     1      28.279   0.897  53.982  1.00  0.00     0.078 A 
ATOM     34  C   UNL     1      28.516  -0.358  53.434  1.00  0.00     0.141 A 
ATOM     35  Cl  UNL     1      29.576   1.833  54.621  1.00  0.00    -0.081 Cl
ATOM     36  F   UNL     1      29.757  -0.865  53.384  1.00  0.00    -0.205 F 
ENDBRANCH  27  29
ENDBRANCH  16  27
ENDBRANCH   3  11
TORSDOF 8
ENDMDL
MODEL 4
REMARK VINA RESULT:    -8.480      3.355      5.426
REMARK INTER + INTRA:         -14.147
REMARK INTER:                 -12.571
REMARK INTRA:                  -1.576
REMARK UNBOUND:                -1.701
REMARK SMILES CN(C)C/C=C/C(=O)Nc1cc2c(Nc3ccc(F)c(Cl)c3)ncnc2cc1O[C@H]1CCOC1
REMARK SMILES IDX 7 1 8 2 9 3 6 5 5 6 4 7 2 8 1 9 3 10 10 11 11 12 28 13 12 14
REMARK SMILES IDX 27 15 13 16 26 17 23 18 25 19 24 20 29 21 30 22 31 23 34 24
REMARK SMILES IDX 32 25 33 26 14 27 15 29 16 30 22 31 17 32 20 33 18 34 21 35
REMARK SMILES IDX 19 36
REMARK H PARENT 9 4 14 28
ROOT
ATOM      1  C   UNL     1      30.416   5.466  48.278  1.00  0.00     0.248 C 
ATOM      2  O   UNL     1      30.761   5.696  49.431  1.00  0.00    -0.270 OA
ATOM      3  N   UNL     1      29.136   5.437  47.785  1.00  0.00    -0.319 N 
ATOM      4  H   UNL     1      29.012   5.381  46.780  1.00  0.00     0.170 HD
ENDROOT
BRANCH   1   5
ATOM      5  C   UNL     1      31.467   5.276  47.240  1.00  0.00     0.068 C 
ATOM      6  C   UNL     1      31.886   4.070  46.819  1.00  0.00    -0.006 C 
BRANCH   6   7
ATOM      7  C   UNL     1      32.953   3.725  45.813  1.00  0.00     0.111 C 
BRANCH   7   8
ATOM      8  N   UNL     1      34.290   3.321  46.221  1.00  0.00    -0.306 NA
ATOM      9  C   UNL     1      34.550   3.418  47.649  1.00  0.00     0.105 C 
ATOM     10  C   UNL     1      35.373   3.840  45.400  1.00  0.00     0.105 C 
ENDBRANCH   7   8
ENDBRANCH   6   7
ENDBRANCH   1   5
BRANCH   3  11
ATOM     11  C   UNL     1      27.925   5.546  48.501  1.00  0.00     0.085 A 
ATOM     12  C   UNL     1      27.306   4.471  49.137  1.00  0.00     0.044 A 
ATOM     13  C   UNL     1      27.319   6.812  48.550  1.00  0.00     0.145 A 
ATOM     14  C   UNL     1      26.090   4.642  49.845  1.00  0.00     0.045 A 
ATOM     15  C   UNL     1      26.107   6.967  49.224  1.00  0.00     0.077 A 
ATOM     16  C   UNL     1      25.404   3.623  50.541  1.00  0.00     0.141 A 
ATOM     17  C   UNL     1      25.488   5.906  49.874  1.00  0.00     0.080 A 
ATOM     18  N   UNL     1      24.237   3.858  51.166  1.00  0.00    -0.219 NA
ATOM     19  N   UNL     1      24.334   6.144  50.502  1.00  0.00    -0.236 NA
ATOM     20  C   UNL     1      23.760   5.103  51.115  1.00  0.00     0.224 A 
BRANCH  13  21
ATOM     21  O   UNL     1      28.001   7.812  47.898  1.00  0.00    -0.486 OA
BRANCH  21  22
ATOM     22  C   UNL     1      28.056   9.114  48.496  1.00  0.00     0.201 C 
ATOM     23  C   UNL     1      29.204   9.111  49.482  1.00  0.00     0.076 C 
ATOM     24  C   UNL     1      28.521  10.163  47.493  1.00  0.00     0.205 C 
ATOM     25  C   UNL     1      30.401   9.330  48.583  1.00  0.00     0.164 C 
ATOM     26  O   UNL     1      29.962  10.170  47.510  1.00  0.00    -0.377 OA
ENDBRANCH  21  22
ENDBRANCH  13  21
BRANCH  16  27
ATOM     27  N   UNL     1      25.962   2.316  50.573  1.00  0.00    -0.340 N 
ATOM     28  H   UNL     1      26.416   2.121  49.687  1.00  0.00     0.168 HD
BRANCH  27  29
ATOM     29  C   UNL     1      26.584   1.639  51.646  1.00  0.00     0.041 A 
ATOM     30  C   UNL     1      27.323   2.388  52.578  1.00  0.00     0.029 A 
ATOM     31  C   UNL     1      26.593   0.242  51.763  1.00  0.00     0.049 A 
ATOM     32  C   UNL     1      27.999   1.766  53.631  1.00  0.00     0.043 A 
ATOM     33  C   UNL     1      27.270  -0.382  52.815  1.00  0.00     0.078 A 
ATOM     34  C   UNL     1      27.965   0.383  53.745  1.00  0.00     0.141 A 
ATOM     35  Cl  UNL     1      27.244  -2.100  52.939  1.00  0.00    -0.081 Cl
ATOM     36  F   UNL     1      28.623  -0.196  54.760  1.00  0.00    -0.205 F 
ENDBRANCH  27  29
ENDBRANCH  16  27
ENDBRANCH   3  11
TORSDOF 8
ENDMDL
MODEL 5
REMARK VINA RESULT:    -8.387      3.581      6.455
REMARK INTER + INTRA:         -14.010
REMARK INTER:                 -12.547
REMARK INTRA:                  -1.463
REMARK UNBOUND:                -1.701
REMARK SMILES CN(C)C/C=C/C(=O)Nc1cc2c(Nc3ccc(F)c(Cl)c3)ncnc2cc1O[C@H]1CCOC1
REMARK SMILES IDX 7 1 8 2 9 3 6 5 5 6 4 7 2 8 1 9 3 10 10 11 11 12 28 13 12 14
REMARK SMILES IDX 27 15 13 16 26 17 23 18 25 19 24 20 29 21 30 22 31 23 34 24
REMARK SMILES IDX 32 25 33 26 14 27 15 29 16 30 22 31 17 32 20 33 18 34 21 35
REMARK SMILES IDX 19 36
REMARK H PARENT 9 4 14 28
ROOT
ATOM      1  C   UNL     1      30.644   5.416  48.250  1.00  0.00     0.248 C 
ATOM      2  O   UNL     1      30.975   5.473  49.428  1.00  0.00    -0.270 OA
ATOM      3  N   UNL     1      29.445   5.800  47.705  1.00  0.00    -0.319 N 
ATOM      4  H   UNL     1      29.368   5.834  46.694  1.00  0.00     0.170 HD
ENDROOT
BRANCH   1   5
ATOM      5  C   UNL     1      31.647   4.968  47.245  1.00  0.00     0.068 C 
ATOM      6  C   UNL     1      32.017   3.685  47.084  1.00  0.00    -0.006 C 
BRANCH   6   7
ATOM      7  C   UNL     1      33.034   3.093  46.144  1.00  0.00     0.111 C 
BRANCH   7   8
ATOM      8  N   UNL     1      34.463   3.199  46.393  1.00  0.00    -0.306 NA
ATOM      9  C   UNL     1      34.823   3.536  47.761  1.00  0.00     0.105 C 
ATOM     10  C   UNL     1      35.213   3.948  45.397  1.00  0.00     0.105 C 
ENDBRANCH   7   8
ENDBRANCH   6   7
ENDBRANCH   1   5
BRANCH   3  11
ATOM     11  C   UNL     1      28.283   6.235  48.378  1.00  0.00     0.085 A 
ATOM     12  C   UNL     1      27.262   5.378  48.786  1.00  0.00     0.044 A 
ATOM     13  C   UNL     1      28.162   7.612  48.626  1.00  0.00     0.145 A 
ATOM     14  C   UNL     1      26.118   5.873  49.462  1.00  0.00     0.045 A 
ATOM     15  C   UNL     1      27.019   8.096  49.266  1.00  0.00     0.077 A 
ATOM     16  C   UNL     1      25.049   5.083  49.936  1.00  0.00     0.141 A 
ATOM     17  C   UNL     1      26.002   7.249  49.690  1.00  0.00     0.080 A 
ATOM     18  N   UNL     1      23.982   5.631  50.544  1.00  0.00    -0.219 NA
ATOM     19  N   UNL     1      24.948   7.795  50.301  1.00  0.00    -0.236 NA
ATOM     20  C   UNL     1      23.983   6.957  50.695  1.00  0.00     0.224 A 
BRANCH  13  21
ATOM     21  O   UNL     1      29.216   8.379  48.191  1.00  0.00    -0.486 OA
BRANCH  21  22
ATOM     22  C   UNL     1      29.944   9.159  49.150  1.00  0.00     0.201 C 
ATOM     23  C   UNL     1      31.418   8.944  48.881  1.00  0.00     0.076 C 
ATOM     24  C   UNL     1      29.801  10.651  48.871  1.00  0.00     0.205 C 
ATOM     25  C   UNL     1      31.676   9.884  47.725  1.00  0.00     0.164 C 
ATOM     26  O   UNL     1      30.813  11.012  47.911  1.00  0.00    -0.377 OA
ENDBRANCH  21  22
ENDBRANCH  13  21
BRANCH  16  27
ATOM     27  N   UNL     1      25.102   3.673  49.758  1.00  0.00    -0.340 N 
ATOM     28  H   UNL     1      25.596   3.461  48.897  1.00  0.00     0.168 HD
BRANCH  27  29
ATOM     29  C   UNL     1      25.269   2.659  50.728  1.00  0.00     0.041 A 
ATOM     30  C   UNL     1      26.568   2.201  51.008  1.00  0.00     0.029 A 
ATOM     31  C   UNL     1      24.191   2.009  51.344  1.00  0.00     0.049 A 
ATOM     32  C   UNL     1      26.788   1.166  51.921  1.00  0.00     0.043 A 
ATOM     33  C   UNL     1      24.408   0.973  52.256  1.00  0.00     0.078 A 
ATOM     34  C   UNL     1      25.705   0.561  52.544  1.00  0.00     0.141 A 
ATOM     35  Cl  UNL     1      23.060   0.209  53.009  1.00  0.00    -0.081 Cl
ATOM     36  F   UNL     1      25.935  -0.433  53.415  1.00  0.00    -0.205 F 
ENDBRANCH  27  29
ENDBRANCH  16  27
ENDBRANCH   3  11
TORSDOF 8
ENDMDL
MODEL 6
REMARK VINA RESULT:    -8.304      3.556      6.572
REMARK INTER + INTRA:         -13.888
REMARK INTER:                 -12.996
REMARK INTRA:                  -0.892
REMARK UNBOUND:                -1.701
REMARK SMILES CN(C)C/C=C/C(=O)Nc1cc2c(Nc3ccc(F)c(Cl)c3)ncnc2cc1O[C@H]1CCOC1
REMARK SMILES IDX 7 1 8 2 9 3 6 5 5 6 4 7 2 8 1 9 3 10 10 11 11 12 28 13 12 14
REMARK SMILES IDX 27 15 13 16 26 17 23 18 25 19 24 20 29 21 30 22 31 23 34 24
REMARK SMILES IDX 32 25 33 26 14 27 15 29 16 30 22 31 17 32 20 33 18 34 21 35
REMARK SMILES IDX 19 36
REMARK H PARENT 9 4 14 28
ROOT
ATOM      1  C   UNL     1      25.561   2.952  50.379  1.00  0.00     0.248 C 
ATOM      2  O   UNL     1      24.493   3.048  49.785  1.00  0.00    -0.270 OA
ATOM      3  N   UNL     1      25.846   2.140  51.448  1.00  0.00    -0.319 N 
ATOM      4  H   UNL     1      26.814   2.058  51.740  1.00  0.00     0.170 HD
ENDROOT
BRANCH   1   5
ATOM      5  C   UNL     1      26.733   3.718  49.872  1.00  0.00     0.068 C 
ATOM      6  C   UNL     1      26.634   4.757  49.027  1.00  0.00    -0.006 C 
BRANCH   6   7
ATOM      7  C   UNL     1      27.722   5.596  48.408  1.00  0.00     0.111 C 
BRANCH   7   8
ATOM      8  N   UNL     1      27.739   7.045  48.533  1.00  0.00    -0.306 NA
ATOM      9  C   UNL     1      26.627   7.608  49.283  1.00  0.00     0.105 C 
ATOM     10  C   UNL     1      28.035   7.771  47.309  1.00  0.00     0.105 C 
ENDBRANCH   7   8
ENDBRANCH   6   7
ENDBRANCH   1   5
BRANCH   3  11
ATOM     11  C   UNL     1      24.960   1.322  52.180  1.00  0.00     0.085 A 
ATOM     12  C   UNL     1      23.589   1.556  52.268  1.00  0.00     0.044 A 
ATOM     13  C   UNL     1      25.513   0.226  52.862  1.00  0.00     0.145 A 
ATOM     14  C   UNL     1      22.746   0.696  53.017  1.00  0.00     0.045 A 
ATOM     15  C   UNL     1      24.683  -0.600  53.622  1.00  0.00     0.077 A 
ATOM     16  C   UNL     1      21.348   0.835  53.144  1.00  0.00     0.141 A 
ATOM     17  C   UNL     1      23.312  -0.384  53.705  1.00  0.00     0.080 A 
ATOM     18  N   UNL     1      20.619  -0.007  53.898  1.00  0.00    -0.219 NA
ATOM     19  N   UNL     1      22.590  -1.227  54.447  1.00  0.00    -0.236 NA
ATOM     20  C   UNL     1      21.275  -0.994  54.512  1.00  0.00     0.224 A 
BRANCH  13  21
ATOM     21  O   UNL     1      26.871   0.071  52.716  1.00  0.00    -0.486 OA
BRANCH  21  22
ATOM     22  C   UNL     1      27.603  -0.612  53.743  1.00  0.00     0.201 C 
ATOM     23  C   UNL     1      29.055  -0.647  53.317  1.00  0.00     0.076 C 
ATOM     24  C   UNL     1      27.681   0.225  55.015  1.00  0.00     0.205 C 
ATOM     25  C   UNL     1      29.538   0.733  53.707  1.00  0.00     0.164 C 
ATOM     26  O   UNL     1      28.816   1.104  54.886  1.00  0.00    -0.377 OA
ENDBRANCH  21  22
ENDBRANCH  13  21
BRANCH  16  27
ATOM     27  N   UNL     1      20.697   1.898  52.459  1.00  0.00    -0.340 N 
ATOM     28  H   UNL     1      20.664   2.716  53.060  1.00  0.00     0.168 HD
BRANCH  27  29
ATOM     29  C   UNL     1      20.762   2.249  51.092  1.00  0.00     0.041 A 
ATOM     30  C   UNL     1      20.747   1.224  50.131  1.00  0.00     0.029 A 
ATOM     31  C   UNL     1      20.952   3.566  50.652  1.00  0.00     0.049 A 
ATOM     32  C   UNL     1      20.858   1.510  48.768  1.00  0.00     0.043 A 
ATOM     33  C   UNL     1      21.065   3.854  49.289  1.00  0.00     0.078 A 
ATOM     34  C   UNL     1      21.012   2.826  48.354  1.00  0.00     0.141 A 
ATOM     35  Cl  UNL     1      21.279   5.486  48.782  1.00  0.00    -0.081 Cl
ATOM     36  F   UNL     1      21.119   3.081  47.042  1.00  0.00    -0.205 F 
ENDBRANCH  27  29
ENDBRANCH  16  27
ENDBRANCH   3  11
TORSDOF 8
ENDMDL
MODEL 7
REMARK VINA RESULT:    -8.270      2.339      2.694
REMARK INTER + INTRA:         -13.839
REMARK INTER:                 -12.565
REMARK INTRA:                  -1.274
REMARK UNBOUND:                -1.701
REMARK SMILES CN(C)C/C=C/C(=O)Nc1cc2c(Nc3ccc(F)c(Cl)c3)ncnc2cc1O[C@H]1CCOC1
REMARK SMILES IDX 7 1 8 2 9 3 6 5 5 6 4 7 2 8 1 9 3 10 10 11 11 12 28 13 12 14
REMARK SMILES IDX 27 15 13 16 26 17 23 18 25 19 24 20 29 21 30 22 31 23 34 24
REMARK SMILES IDX 32 25 33 26 14 27 15 29 16 30 22 31 17 32 20 33 18 34 21 35
REMARK SMILES IDX 19 36
REMARK H PARENT 9 4 14 28
ROOT
ATOM      1  C   UNL     1      26.255   3.411  50.193  1.00  0.00     0.248 C 
ATOM      2  O   UNL     1      26.917   2.857  51.062  1.00  0.00    -0.270 OA
ATOM      3  N   UNL     1      24.888   3.502  50.123  1.00  0.00    -0.319 N 
ATOM      4  H   UNL     1      24.485   4.120  49.425  1.00  0.00     0.170 HD
ENDROOT
BRANCH   1   5
ATOM      5  C   UNL     1      26.966   4.156  49.116  1.00  0.00     0.068 C 
ATOM      6  C   UNL     1      27.035   5.497  49.060  1.00  0.00    -0.006 C 
BRANCH   6   7
ATOM      7  C   UNL     1      27.681   6.380  48.025  1.00  0.00     0.111 C 
BRANCH   7   8
ATOM      8  N   UNL     1      27.980   7.780  48.288  1.00  0.00    -0.306 NA
ATOM      9  C   UNL     1      29.392   8.125  48.233  1.00  0.00     0.105 C 
ATOM     10  C   UNL     1      27.288   8.359  49.428  1.00  0.00     0.105 C 
ENDBRANCH   7   8
ENDBRANCH   6   7
ENDBRANCH   1   5
BRANCH   3  11
ATOM     11  C   UNL     1      23.931   2.889  50.959  1.00  0.00     0.085 A 
ATOM     12  C   UNL     1      24.121   1.650  51.567  1.00  0.00     0.044 A 
ATOM     13  C   UNL     1      22.723   3.575  51.162  1.00  0.00     0.145 A 
ATOM     14  C   UNL     1      23.123   1.083  52.401  1.00  0.00     0.045 A 
ATOM     15  C   UNL     1      21.732   2.999  51.960  1.00  0.00     0.077 A 
ATOM     16  C   UNL     1      23.233  -0.149  53.079  1.00  0.00     0.141 A 
ATOM     17  C   UNL     1      21.916   1.770  52.584  1.00  0.00     0.080 A 
ATOM     18  N   UNL     1      22.229  -0.634  53.831  1.00  0.00    -0.219 NA
ATOM     19  N   UNL     1      20.921   1.296  53.336  1.00  0.00    -0.236 NA
ATOM     20  C   UNL     1      21.124   0.110  53.921  1.00  0.00     0.224 A 
BRANCH  13  21
ATOM     21  O   UNL     1      22.625   4.789  50.526  1.00  0.00    -0.486 OA
BRANCH  21  22
ATOM     22  C   UNL     1      22.576   5.983  51.319  1.00  0.00     0.201 C 
ATOM     23  C   UNL     1      23.909   6.683  51.165  1.00  0.00     0.076 C 
ATOM     24  C   UNL     1      21.624   7.009  50.715  1.00  0.00     0.205 C 
ATOM     25  C   UNL     1      23.746   7.398  49.842  1.00  0.00     0.164 C 
ATOM     26  O   UNL     1      22.367   7.768  49.741  1.00  0.00    -0.377 OA
ENDBRANCH  21  22
ENDBRANCH  13  21
BRANCH  16  27
ATOM     27  N   UNL     1      24.436  -0.896  52.958  1.00  0.00    -0.340 N 
ATOM     28  H   UNL     1      24.492  -1.296  52.026  1.00  0.00     0.168 HD
BRANCH  27  29
ATOM     29  C   UNL     1      25.715  -0.620  53.491  1.00  0.00     0.041 A 
ATOM     30  C   UNL     1      25.841   0.407  54.444  1.00  0.00     0.029 A 
ATOM     31  C   UNL     1      26.883  -1.245  53.034  1.00  0.00     0.049 A 
ATOM     32  C   UNL     1      27.088   0.756  54.968  1.00  0.00     0.043 A 
ATOM     33  C   UNL     1      28.132  -0.896  53.556  1.00  0.00     0.078 A 
ATOM     34  C   UNL     1      28.227   0.099  54.524  1.00  0.00     0.141 A 
ATOM     35  Cl  UNL     1      29.545  -1.698  52.985  1.00  0.00    -0.081 Cl
ATOM     36  F   UNL     1      29.415   0.450  55.037  1.00  0.00    -0.205 F 
ENDBRANCH  27  29
ENDBRANCH  16  27
ENDBRANCH   3  11
TORSDOF 8
ENDMDL
MODEL 8
REMARK VINA RESULT:    -8.241      3.414      7.218
REMARK INTER + INTRA:         -13.796
REMARK INTER:                 -12.269
REMARK INTRA:                  -1.527
REMARK UNBOUND:                -1.701
REMARK SMILES CN(C)C/C=C/C(=O)Nc1cc2c(Nc3ccc(F)c(Cl)c3)ncnc2cc1O[C@H]1CCOC1
REMARK SMILES IDX 7 1 8 2 9 3 6 5 5 6 4 7 2 8 1 9 3 10 10 11 11 12 28 13 12 14
REMARK SMILES IDX 27 15 13 16 26 17 23 18 25 19 24 20 29 21 30 22 31 23 34 24
REMARK SMILES IDX 32 25 33 26 14 27 15 29 16 30 22 31 17 32 20 33 18 34 21 35
REMARK SMILES IDX 19 36
REMARK H PARENT 9 4 14 28
ROOT
ATOM      1  C   UNL     1      24.998   2.238  52.491  1.00  0.00     0.248 C 
ATOM      2  O   UNL     1      24.488   3.088  53.210  1.00  0.00    -0.270 OA
ATOM      3  N   UNL     1      25.235   2.326  51.142  1.00  0.00    -0.319 N 
ATOM      4  H   UNL     1      25.799   1.603  50.708  1.00  0.00     0.170 HD
ENDROOT
BRANCH   1   5
ATOM      5  C   UNL     1      25.512   0.986  53.113  1.00  0.00     0.068 C 
ATOM      6  C   UNL     1      26.597   0.328  52.672  1.00  0.00    -0.006 C 
BRANCH   6   7
ATOM      7  C   UNL     1      27.209  -0.955  53.173  1.00  0.00     0.111 C 
BRANCH   7   8
ATOM      8  N   UNL     1      28.385  -0.961  54.029  1.00  0.00    -0.306 NA
ATOM      9  C   UNL     1      28.536   0.215  54.872  1.00  0.00     0.105 C 
ATOM     10  C   UNL     1      29.622  -1.370  53.382  1.00  0.00     0.105 C 
ENDBRANCH   7   8
ENDBRANCH   6   7
ENDBRANCH   1   5
BRANCH   3  11
ATOM     11  C   UNL     1      24.846   3.353  50.255  1.00  0.00     0.085 A 
ATOM     12  C   UNL     1      25.646   4.453  49.954  1.00  0.00     0.044 A 
ATOM     13  C   UNL     1      23.575   3.247  49.668  1.00  0.00     0.145 A 
ATOM     14  C   UNL     1      25.203   5.454  49.052  1.00  0.00     0.045 A 
ATOM     15  C   UNL     1      23.133   4.250  48.803  1.00  0.00     0.077 A 
ATOM     16  C   UNL     1      25.949   6.587  48.665  1.00  0.00     0.141 A 
ATOM     17  C   UNL     1      23.927   5.345  48.484  1.00  0.00     0.080 A 
ATOM     18  N   UNL     1      25.448   7.510  47.824  1.00  0.00    -0.219 NA
ATOM     19  N   UNL     1      23.431   6.254  47.642  1.00  0.00    -0.236 NA
ATOM     20  C   UNL     1      24.215   7.299  47.356  1.00  0.00     0.224 A 
BRANCH  13  21
ATOM     21  O   UNL     1      22.859   2.128  50.021  1.00  0.00    -0.486 OA
BRANCH  21  22
ATOM     22  C   UNL     1      21.479   2.278  50.384  1.00  0.00     0.201 C 
ATOM     23  C   UNL     1      20.894   0.888  50.517  1.00  0.00     0.076 C 
ATOM     24  C   UNL     1      21.337   2.803  51.808  1.00  0.00     0.205 C 
ATOM     25  C   UNL     1      21.350   0.477  51.900  1.00  0.00     0.164 C 
ATOM     26  O   UNL     1      21.377   1.668  52.695  1.00  0.00    -0.377 OA
ENDBRANCH  21  22
ENDBRANCH  13  21
BRANCH  16  27
ATOM     27  N   UNL     1      27.261   6.759  49.184  1.00  0.00    -0.340 N 
ATOM     28  H   UNL     1      27.315   6.342  50.108  1.00  0.00     0.168 HD
BRANCH  27  29
ATOM     29  C   UNL     1      28.501   6.707  48.509  1.00  0.00     0.041 A 
ATOM     30  C   UNL     1      29.153   5.468  48.389  1.00  0.00     0.029 A 
ATOM     31  C   UNL     1      29.166   7.852  48.048  1.00  0.00     0.049 A 
ATOM     32  C   UNL     1      30.403   5.365  47.775  1.00  0.00     0.043 A 
ATOM     33  C   UNL     1      30.418   7.752  47.434  1.00  0.00     0.078 A 
ATOM     34  C   UNL     1      31.027   6.509  47.296  1.00  0.00     0.141 A 
ATOM     35  Cl  UNL     1      31.198   9.177  46.863  1.00  0.00    -0.081 Cl
ATOM     36  F   UNL     1      32.229   6.392  46.711  1.00  0.00    -0.205 F 
ENDBRANCH  27  29
ENDBRANCH  16  27
ENDBRANCH   3  11
TORSDOF 8
ENDMDL
MODEL 9
REMARK VINA RESULT:    -8.219      3.899      7.305
REMARK INTER + INTRA:         -13.764
REMARK INTER:                 -12.140
REMARK INTRA:                  -1.624
REMARK UNBOUND:                -1.701
REMARK SMILES CN(C)C/C=C/C(=O)Nc1cc2c(Nc3ccc(F)c(Cl)c3)ncnc2cc1O[C@H]1CCOC1
REMARK SMILES IDX 7 1 8 2 9 3 6 5 5 6 4 7 2 8 1 9 3 10 10 11 11 12 28 13 12 14
REMARK SMILES IDX 27 15 13 16 26 17 23 18 25 19 24 20 29 21 30 22 31 23 34 24
REMARK SMILES IDX 32 25 33 26 14 27 15 29 16 30 22 31 17 32 20 33 18 34 21 35
REMARK SMILES IDX 19 36
REMARK H PARENT 9 4 14 28
ROOT
ATOM      1  C   UNL     1      25.081   2.686  52.451  1.00  0.00     0.248 C 
ATOM      2  O   UNL     1      25.322   2.410  51.282  1.00  0.00    -0.270 OA
ATOM      3  N   UNL     1      24.190   3.621  52.916  1.00  0.00    -0.319 N 
ATOM      4  H   UNL     1      23.987   3.635  53.910  1.00  0.00     0.170 HD
ENDROOT
BRANCH   1   5
ATOM      5  C   UNL     1      25.737   1.891  53.525  1.00  0.00     0.068 C 
ATOM      6  C   UNL     1      26.877   1.201  53.349  1.00  0.00    -0.006 C 
BRANCH   6   7
ATOM      7  C   UNL     1      27.631   0.332  54.322  1.00  0.00     0.111 C 
BRANCH   7   8
ATOM      8  N   UNL     1      28.147  -0.975  53.944  1.00  0.00    -0.306 NA
ATOM      9  C   UNL     1      29.583  -1.024  53.718  1.00  0.00     0.105 C 
ATOM     10  C   UNL     1      27.378  -1.676  52.928  1.00  0.00     0.105 C 
ENDBRANCH   7   8
ENDBRANCH   6   7
ENDBRANCH   1   5
BRANCH   3  11
ATOM     11  C   UNL     1      23.437   4.553  52.170  1.00  0.00     0.085 A 
ATOM     12  C   UNL     1      23.942   5.775  51.731  1.00  0.00     0.044 A 
ATOM     13  C   UNL     1      22.105   4.217  51.879  1.00  0.00     0.145 A 
ATOM     14  C   UNL     1      23.139   6.672  50.981  1.00  0.00     0.045 A 
ATOM     15  C   UNL     1      21.311   5.116  51.165  1.00  0.00     0.077 A 
ATOM     16  C   UNL     1      23.567   7.916  50.472  1.00  0.00     0.141 A 
ATOM     17  C   UNL     1      21.808   6.332  50.710  1.00  0.00     0.080 A 
ATOM     18  N   UNL     1      22.735   8.725  49.793  1.00  0.00    -0.219 NA
ATOM     19  N   UNL     1      20.982   7.129  50.028  1.00  0.00    -0.236 NA
ATOM     20  C   UNL     1      21.486   8.294  49.606  1.00  0.00     0.224 A 
BRANCH  13  21
ATOM     21  O   UNL     1      21.695   2.992  52.349  1.00  0.00    -0.486 OA
BRANCH  21  22
ATOM     22  C   UNL     1      21.037   2.091  51.447  1.00  0.00     0.201 C 
ATOM     23  C   UNL     1      22.058   1.064  51.009  1.00  0.00     0.076 C 
ATOM     24  C   UNL     1      20.024   1.219  52.180  1.00  0.00     0.205 C 
ATOM     25  C   UNL     1      22.065   0.100  52.176  1.00  0.00     0.164 C 
ATOM     26  O   UNL     1      20.732   0.075  52.697  1.00  0.00    -0.377 OA
ENDBRANCH  21  22
ENDBRANCH  13  21
BRANCH  16  27
ATOM     27  N   UNL     1      24.912   8.323  50.690  1.00  0.00    -0.340 N 
ATOM     28  H   UNL     1      25.140   8.219  51.673  1.00  0.00     0.168 HD
BRANCH  27  29
ATOM     29  C   UNL     1      26.043   8.142  49.862  1.00  0.00     0.041 A 
ATOM     30  C   UNL     1      26.026   7.105  48.913  1.00  0.00     0.029 A 
ATOM     31  C   UNL     1      27.226   8.877  50.018  1.00  0.00     0.049 A 
ATOM     32  C   UNL     1      27.134   6.849  48.103  1.00  0.00     0.043 A 
ATOM     33  C   UNL     1      28.337   8.622  49.209  1.00  0.00     0.078 A 
ATOM     34  C   UNL     1      28.284   7.614  48.253  1.00  0.00     0.141 A 
ATOM     35  Cl  UNL     1      29.769   9.557  49.415  1.00  0.00    -0.081 Cl
ATOM     36  F   UNL     1      29.339   7.352  47.468  1.00  0.00    -0.205 F 
ENDBRANCH  27  29
ENDBRANCH  16  27
ENDBRANCH   3  11
TORSDOF 8
ENDMDL
MODEL 10
REMARK VINA RESULT:    -8.101      1.699      2.070
REMARK INTER + INTRA:         -13.591
REMARK INTER:                 -11.889
REMARK INTRA:                  -1.702
REMARK UNBOUND:                -1.701
REMARK SMILES CN(C)C/C=C/C(=O)Nc1cc2c(Nc3ccc(F)c(Cl)c3)ncnc2cc1O[C@H]1CCOC1
REMARK SMILES IDX 7 1 8 2 9 3 6 5 5 6 4 7 2 8 1 9 3 10 10 11 11 12 28 13 12 14
REMARK SMILES IDX 27 15 13 16 26 17 23 18 25 19 24 20 29 21 30 22 31 23 34 24
REMARK SMILES IDX 32 25 33 26 14 27 15 29 16 30 22 31 17 32 20 33 18 34 21 35
REMARK SMILES IDX 19 36
REMARK H PARENT 9 4 14 28
ROOT
ATOM      1  C   UNL     1      25.425   4.981  49.747  1.00  0.00     0.248 C 
ATOM      2  O   UNL     1      24.854   5.665  50.588  1.00  0.00    -0.270 OA
ATOM      3  N   UNL     1      25.166   3.671  49.429  1.00  0.00    -0.319 N 
ATOM      4  H   UNL     1      25.618   3.280  48.609  1.00  0.00     0.170 HD
ENDROOT
BRANCH   1   5
ATOM      5  C   UNL     1      26.463   5.616  48.890  1.00  0.00     0.068 C 
ATOM      6  C   UNL     1      26.695   6.940  48.861  1.00  0.00    -0.006 C 
BRANCH   6   7
ATOM      7  C   UNL     1      27.676   7.722  48.027  1.00  0.00     0.111 C 
BRANCH   7   8
ATOM      8  N   UNL     1      28.052   9.087  48.362  1.00  0.00    -0.306 NA
ATOM      9  C   UNL     1      28.022   9.399  49.783  1.00  0.00     0.105 C 
ATOM     10  C   UNL     1      27.450  10.118  47.532  1.00  0.00     0.105 C 
ENDBRANCH   7   8
ENDBRANCH   6   7
ENDBRANCH   1   5
BRANCH   3  11
ATOM     11  C   UNL     1      24.276   2.780  50.066  1.00  0.00     0.085 A 
ATOM     12  C   UNL     1      24.523   2.201  51.309  1.00  0.00     0.044 A 
ATOM     13  C   UNL     1      23.090   2.462  49.385  1.00  0.00     0.145 A 
ATOM     14  C   UNL     1      23.588   1.314  51.902  1.00  0.00     0.045 A 
ATOM     15  C   UNL     1      22.187   1.565  49.960  1.00  0.00     0.077 A 
ATOM     16  C   UNL     1      23.736   0.701  53.164  1.00  0.00     0.141 A 
ATOM     17  C   UNL     1      22.416   0.993  51.205  1.00  0.00     0.080 A 
ATOM     18  N   UNL     1      22.817  -0.153  53.646  1.00  0.00    -0.219 NA
ATOM     19  N   UNL     1      21.497   0.152  51.686  1.00  0.00    -0.236 NA
ATOM     20  C   UNL     1      21.745  -0.387  52.885  1.00  0.00     0.224 A 
BRANCH  13  21
ATOM     21  O   UNL     1      22.930   3.081  48.168  1.00  0.00    -0.486 OA
BRANCH  21  22
ATOM     22  C   UNL     1      21.718   3.806  47.916  1.00  0.00     0.201 C 
ATOM     23  C   UNL     1      21.911   5.209  48.449  1.00  0.00     0.076 C 
ATOM     24  C   UNL     1      21.534   4.072  46.426  1.00  0.00     0.205 C 
ATOM     25  C   UNL     1      22.694   5.872  47.337  1.00  0.00     0.164 C 
ATOM     26  O   UNL     1      22.245   5.285  46.111  1.00  0.00    -0.377 OA
ENDBRANCH  21  22
ENDBRANCH  13  21
BRANCH  16  27
ATOM     27  N   UNL     1      24.891   0.993  53.939  1.00  0.00    -0.340 N 
ATOM     28  H   UNL     1      24.632   1.055  54.919  1.00  0.00     0.168 HD
BRANCH  27  29
ATOM     29  C   UNL     1      26.217   0.532  53.772  1.00  0.00     0.041 A 
ATOM     30  C   UNL     1      27.270   1.458  53.867  1.00  0.00     0.029 A 
ATOM     31  C   UNL     1      26.525  -0.784  53.404  1.00  0.00     0.049 A 
ATOM     32  C   UNL     1      28.595   1.069  53.661  1.00  0.00     0.043 A 
ATOM     33  C   UNL     1      27.851  -1.177  53.196  1.00  0.00     0.078 A 
ATOM     34  C   UNL     1      28.879  -0.250  53.331  1.00  0.00     0.141 A 
ATOM     35  Cl  UNL     1      28.195  -2.808  52.763  1.00  0.00    -0.081 Cl
ATOM     36  F   UNL     1      30.157  -0.605  53.134  1.00  0.00    -0.205 F 
ENDBRANCH  27  29
ENDBRANCH  16  27
ENDBRANCH   3  11
TORSDOF 8
ENDMDL
MODEL 11
REMARK VINA RESULT:    -8.088      3.516      7.999
REMARK INTER + INTRA:         -13.571
REMARK INTER:                 -12.716
REMARK INTRA:                  -0.855
REMARK UNBOUND:                -1.701
REMARK SMILES CN(C)C/C=C/C(=O)Nc1cc2c(Nc3ccc(F)c(Cl)c3)ncnc2cc1O[C@H]1CCOC1
REMARK SMILES IDX 7 1 8 2 9 3 6 5 5 6 4 7 2 8 1 9 3 10 10 11 11 12 28 13 12 14
REMARK SMILES IDX 27 15 13 16 26 17 23 18 25 19 24 20 29 21 30 22 31 23 34 24
REMARK SMILES IDX 32 25 33 26 14 27 15 29 16 30 22 31 17 32 20 33 18 34 21 35
REMARK SMILES IDX 19 36
REMARK H PARENT 9 4 14 28
ROOT
ATOM      1  C   UNL     1      26.389   2.435  51.256  1.00  0.00     0.248 C 
ATOM      2  O   UNL     1      27.487   2.698  51.735  1.00  0.00    -0.270 OA
ATOM      3  N   UNL     1      25.744   3.102  50.246  1.00  0.00    -0.319 N 
ATOM      4  H   UNL     1      24.908   2.681  49.854  1.00  0.00     0.170 HD
ENDROOT
BRANCH   1   5
ATOM      5  C   UNL     1      25.673   1.219  51.731  1.00  0.00     0.068 C 
ATOM      6  C   UNL     1      24.879   1.199  52.815  1.00  0.00    -0.006 C 
BRANCH   6   7
ATOM      7  C   UNL     1      24.126   0.047  53.429  1.00  0.00     0.111 C 
BRANCH   7   8
ATOM      8  N   UNL     1      24.714  -0.791  54.462  1.00  0.00    -0.306 NA
ATOM      9  C   UNL     1      23.765  -1.344  55.416  1.00  0.00     0.105 C 
ATOM     10  C   UNL     1      25.915  -0.257  55.086  1.00  0.00     0.105 C 
ENDBRANCH   7   8
ENDBRANCH   6   7
ENDBRANCH   1   5
BRANCH   3  11
ATOM     11  C   UNL     1      26.131   4.299  49.607  1.00  0.00     0.085 A 
ATOM     12  C   UNL     1      27.404   4.517  49.084  1.00  0.00     0.044 A 
ATOM     13  C   UNL     1      25.169   5.319  49.518  1.00  0.00     0.145 A 
ATOM     14  C   UNL     1      27.734   5.741  48.449  1.00  0.00     0.045 A 
ATOM     15  C   UNL     1      25.510   6.533  48.918  1.00  0.00     0.077 A 
ATOM     16  C   UNL     1      28.983   6.044  47.867  1.00  0.00     0.141 A 
ATOM     17  C   UNL     1      26.772   6.756  48.380  1.00  0.00     0.080 A 
ATOM     18  N   UNL     1      29.230   7.242  47.307  1.00  0.00    -0.219 NA
ATOM     19  N   UNL     1      27.011   7.942  47.816  1.00  0.00    -0.236 NA
ATOM     20  C   UNL     1      28.234   8.131  47.310  1.00  0.00     0.224 A 
BRANCH  13  21
ATOM     21  O   UNL     1      23.943   5.015  50.058  1.00  0.00    -0.486 OA
BRANCH  21  22
ATOM     22  C   UNL     1      23.534   5.680  51.262  1.00  0.00     0.201 C 
ATOM     23  C   UNL     1      22.124   6.186  51.042  1.00  0.00     0.076 C 
ATOM     24  C   UNL     1      23.324   4.686  52.398  1.00  0.00     0.205 C 
ATOM     25  C   UNL     1      21.294   4.945  51.290  1.00  0.00     0.164 C 
ATOM     26  O   UNL     1      21.976   4.188  52.296  1.00  0.00    -0.377 OA
ENDBRANCH  21  22
ENDBRANCH  13  21
BRANCH  16  27
ATOM     27  N   UNL     1      30.007   5.057  47.880  1.00  0.00    -0.340 N 
ATOM     28  H   UNL     1      29.801   4.349  47.183  1.00  0.00     0.168 HD
BRANCH  27  29
ATOM     29  C   UNL     1      31.397   5.218  48.077  1.00  0.00     0.041 A 
ATOM     30  C   UNL     1      31.864   6.418  48.640  1.00  0.00     0.029 A 
ATOM     31  C   UNL     1      32.342   4.283  47.633  1.00  0.00     0.049 A 
ATOM     32  C   UNL     1      33.231   6.651  48.812  1.00  0.00     0.043 A 
ATOM     33  C   UNL     1      33.710   4.515  47.803  1.00  0.00     0.078 A 
ATOM     34  C   UNL     1      34.147   5.695  48.396  1.00  0.00     0.141 A 
ATOM     35  Cl  UNL     1      34.844   3.336  47.264  1.00  0.00    -0.081 Cl
ATOM     36  F   UNL     1      35.455   5.938  48.566  1.00  0.00    -0.205 F 
ENDBRANCH  27  29
ENDBRANCH  16  27
ENDBRANCH   3  11
TORSDOF 8
ENDMDL
MODEL 12
REMARK VINA RESULT:    -8.061      2.481      3.447
REMARK INTER + INTRA:         -13.531
REMARK INTER:                 -12.281
REMARK INTRA:                  -1.250
REMARK UNBOUND:                -1.701
REMARK SMILES CN(C)C/C=C/C(=O)Nc1cc2c(Nc3ccc(F)c(Cl)c3)ncnc2cc1O[C@H]1CCOC1
REMARK SMILES IDX 7 1 8 2 9 3 6 5 5 6 4 7 2 8 1 9 3 10 10 11 11 12 28 13 12 14
REMARK SMILES IDX 27 15 13 16 26 17 23 18 25 19 24 20 29 21 30 22 31 23 34 24
REMARK SMILES IDX 32 25 33 26 14 27 15 29 16 30 22 31 17 32 20 33 18 34 21 35
REMARK SMILES IDX 19 36
REMARK H PARENT 9 4 14 28
ROOT
ATOM      1  C   UNL     1      27.613   5.440  48.727  1.00  0.00     0.248 C 
ATOM      2  O   UNL     1      27.589   4.214  48.724  1.00  0.00    -0.270 OA
ATOM      3  N   UNL     1      26.713   6.286  49.324  1.00  0.00    -0.319 N 
ATOM      4  H   UNL     1      26.943   7.273  49.369  1.00  0.00     0.170 HD
ENDROOT
BRANCH   1   5
ATOM      5  C   UNL     1      28.771   6.135  48.100  1.00  0.00     0.068 C 
ATOM      6  C   UNL     1      30.008   5.612  48.039  1.00  0.00    -0.006 C 
BRANCH   6   7
ATOM      7  C   UNL     1      31.272   6.206  47.474  1.00  0.00     0.111 C 
BRANCH   7   8
ATOM      8  N   UNL     1      31.911   7.365  48.077  1.00  0.00    -0.306 NA
ATOM      9  C   UNL     1      31.905   7.380  49.532  1.00  0.00     0.105 C 
ATOM     10  C   UNL     1      31.561   8.647  47.486  1.00  0.00     0.105 C 
ENDBRANCH   7   8
ENDBRANCH   6   7
ENDBRANCH   1   5
BRANCH   3  11
ATOM     11  C   UNL     1      25.500   5.954  49.965  1.00  0.00     0.085 A 
ATOM     12  C   UNL     1      25.164   4.660  50.357  1.00  0.00     0.044 A 
ATOM     13  C   UNL     1      24.591   6.999  50.198  1.00  0.00     0.145 A 
ATOM     14  C   UNL     1      23.931   4.388  51.002  1.00  0.00     0.045 A 
ATOM     15  C   UNL     1      23.366   6.720  50.807  1.00  0.00     0.077 A 
ATOM     16  C   UNL     1      23.515   3.119  51.459  1.00  0.00     0.141 A 
ATOM     17  C   UNL     1      23.026   5.435  51.215  1.00  0.00     0.080 A 
ATOM     18  N   UNL     1      22.314   2.935  52.037  1.00  0.00    -0.219 NA
ATOM     19  N   UNL     1      21.838   5.258  51.797  1.00  0.00    -0.236 NA
ATOM     20  C   UNL     1      21.536   4.011  52.176  1.00  0.00     0.224 A 
BRANCH  13  21
ATOM     21  O   UNL     1      25.007   8.241  49.781  1.00  0.00    -0.486 OA
BRANCH  21  22
ATOM     22  C   UNL     1      24.347   8.851  48.663  1.00  0.00     0.201 C 
ATOM     23  C   UNL     1      25.257   9.943  48.142  1.00  0.00     0.076 C 
ATOM     24  C   UNL     1      24.295   7.906  47.469  1.00  0.00     0.205 C 
ATOM     25  C   UNL     1      26.245   9.165  47.301  1.00  0.00     0.164 C 
ATOM     26  O   UNL     1      25.527   8.061  46.738  1.00  0.00    -0.377 OA
ENDBRANCH  21  22
ENDBRANCH  13  21
BRANCH  16  27
ATOM     27  N   UNL     1      24.387   2.008  51.295  1.00  0.00    -0.340 N 
ATOM     28  H   UNL     1      24.727   1.985  50.339  1.00  0.00     0.168 HD
BRANCH  27  29
ATOM     29  C   UNL     1      25.327   1.473  52.204  1.00  0.00     0.041 A 
ATOM     30  C   UNL     1      24.980   0.322  52.933  1.00  0.00     0.029 A 
ATOM     31  C   UNL     1      26.547   2.098  52.496  1.00  0.00     0.049 A 
ATOM     32  C   UNL     1      25.850  -0.222  53.881  1.00  0.00     0.043 A 
ATOM     33  C   UNL     1      27.419   1.556  53.444  1.00  0.00     0.078 A 
ATOM     34  C   UNL     1      27.068   0.396  54.128  1.00  0.00     0.141 A 
ATOM     35  Cl  UNL     1      28.919   2.340  53.763  1.00  0.00    -0.081 Cl
ATOM     36  F   UNL     1      27.890  -0.139  55.043  1.00  0.00    -0.205 F 
ENDBRANCH  27  29
ENDBRANCH  16  27
ENDBRANCH   3  11
TORSDOF 8
ENDMDL
MODEL 13
REMARK VINA RESULT:    -7.940      1.860      2.359
REMARK INTER + INTRA:         -13.354
REMARK INTER:                 -11.930
REMARK INTRA:                  -1.424
REMARK UNBOUND:                -1.701
REMARK SMILES CN(C)C/C=C/C(=O)Nc1cc2c(Nc3ccc(F)c(Cl)c3)ncnc2cc1O[C@H]1CCOC1
REMARK SMILES IDX 7 1 8 2 9 3 6 5 5 6 4 7 2 8 1 9 3 10 10 11 11 12 28 13 12 14
REMARK SMILES IDX 27 15 13 16 26 17 23 18 25 19 24 20 29 21 30 22 31 23 34 24
REMARK SMILES IDX 32 25 33 26 14 27 15 29 16 30 22 31 17 32 20 33 18 34 21 35
REMARK SMILES IDX 19 36
REMARK H PARENT 9 4 14 28
ROOT
ATOM      1  C   UNL     1      27.301   5.066  48.786  1.00  0.00     0.248 C 
ATOM      2  O   UNL     1      27.799   3.948  48.721  1.00  0.00    -0.270 OA
ATOM      3  N   UNL     1      26.133   5.418  49.414  1.00  0.00    -0.319 N 
ATOM      4  H   UNL     1      25.923   6.406  49.513  1.00  0.00     0.170 HD
ENDROOT
BRANCH   1   5
ATOM      5  C   UNL     1      28.049   6.218  48.210  1.00  0.00     0.068 C 
ATOM      6  C   UNL     1      29.388   6.326  48.242  1.00  0.00    -0.006 C 
BRANCH   6   7
ATOM      7  C   UNL     1      30.271   7.437  47.737  1.00  0.00     0.111 C 
BRANCH   7   8
ATOM      8  N   UNL     1      31.721   7.376  47.848  1.00  0.00    -0.306 NA
ATOM      9  C   UNL     1      32.422   7.164  46.591  1.00  0.00     0.105 C 
ATOM     10  C   UNL     1      32.227   6.556  48.937  1.00  0.00     0.105 C 
ENDBRANCH   7   8
ENDBRANCH   6   7
ENDBRANCH   1   5
BRANCH   3  11
ATOM     11  C   UNL     1      25.182   4.572  50.023  1.00  0.00     0.085 A 
ATOM     12  C   UNL     1      25.444   3.814  51.163  1.00  0.00     0.044 A 
ATOM     13  C   UNL     1      23.915   4.493  49.423  1.00  0.00     0.145 A 
ATOM     14  C   UNL     1      24.446   2.983  51.733  1.00  0.00     0.045 A 
ATOM     15  C   UNL     1      22.947   3.650  49.972  1.00  0.00     0.077 A 
ATOM     16  C   UNL     1      24.607   2.202  52.897  1.00  0.00     0.141 A 
ATOM     17  C   UNL     1      23.192   2.901  51.117  1.00  0.00     0.080 A 
ATOM     18  N   UNL     1      23.620   1.414  53.361  1.00  0.00    -0.219 NA
ATOM     19  N   UNL     1      22.207   2.127  51.580  1.00  0.00    -0.236 NA
ATOM     20  C   UNL     1      22.472   1.414  52.681  1.00  0.00     0.224 A 
BRANCH  13  21
ATOM     21  O   UNL     1      23.747   5.276  48.306  1.00  0.00    -0.486 OA
BRANCH  21  22
ATOM     22  C   UNL     1      22.648   6.197  48.266  1.00  0.00     0.201 C 
ATOM     23  C   UNL     1      22.980   7.338  49.204  1.00  0.00     0.076 C 
ATOM     24  C   UNL     1      22.579   6.917  46.925  1.00  0.00     0.205 C 
ATOM     25  C   UNL     1      23.898   8.193  48.357  1.00  0.00     0.164 C 
ATOM     26  O   UNL     1      23.448   8.064  47.004  1.00  0.00    -0.377 OA
ENDBRANCH  21  22
ENDBRANCH  13  21
BRANCH  16  27
ATOM     27  N   UNL     1      25.847   2.246  53.591  1.00  0.00    -0.340 N 
ATOM     28  H   UNL     1      25.704   2.648  54.512  1.00  0.00     0.168 HD
BRANCH  27  29
ATOM     29  C   UNL     1      26.907   1.312  53.581  1.00  0.00     0.041 A 
ATOM     30  C   UNL     1      28.207   1.764  53.869  1.00  0.00     0.029 A 
ATOM     31  C   UNL     1      26.743  -0.023  53.188  1.00  0.00     0.049 A 
ATOM     32  C   UNL     1      29.300   0.895  53.825  1.00  0.00     0.043 A 
ATOM     33  C   UNL     1      27.835  -0.894  53.143  1.00  0.00     0.078 A 
ATOM     34  C   UNL     1      29.107  -0.432  53.466  1.00  0.00     0.141 A 
ATOM     35  Cl  UNL     1      27.594  -2.534  52.674  1.00  0.00    -0.081 Cl
ATOM     36  F   UNL     1      30.168  -1.251  53.427  1.00  0.00    -0.205 F 
ENDBRANCH  27  29
ENDBRANCH  16  27
ENDBRANCH   3  11
TORSDOF 8
ENDMDL
MODEL 14
REMARK VINA RESULT:    -7.860      3.199      7.225
REMARK INTER + INTRA:         -13.237
REMARK INTER:                 -11.998
REMARK INTRA:                  -1.239
REMARK UNBOUND:                -1.701
REMARK SMILES CN(C)C/C=C/C(=O)Nc1cc2c(Nc3ccc(F)c(Cl)c3)ncnc2cc1O[C@H]1CCOC1
REMARK SMILES IDX 7 1 8 2 9 3 6 5 5 6 4 7 2 8 1 9 3 10 10 11 11 12 28 13 12 14
REMARK SMILES IDX 27 15 13 16 26 17 23 18 25 19 24 20 29 21 30 22 31 23 34 24
REMARK SMILES IDX 32 25 33 26 14 27 15 29 16 30 22 31 17 32 20 33 18 34 21 35
REMARK SMILES IDX 19 36
REMARK H PARENT 9 4 14 28
ROOT
ATOM      1  C   UNL     1      25.007   2.296  52.133  1.00  0.00     0.248 C 
ATOM      2  O   UNL     1      24.535   3.125  52.903  1.00  0.00    -0.270 OA
ATOM      3  N   UNL     1      25.291   2.467  50.802  1.00  0.00    -0.319 N 
ATOM      4  H   UNL     1      25.817   1.740  50.329  1.00  0.00     0.170 HD
ENDROOT
BRANCH   1   5
ATOM      5  C   UNL     1      25.413   0.969  52.672  1.00  0.00     0.068 C 
ATOM      6  C   UNL     1      26.658   0.473  52.568  1.00  0.00    -0.006 C 
BRANCH   6   7
ATOM      7  C   UNL     1      27.201  -0.855  53.028  1.00  0.00     0.111 C 
BRANCH   7   8
ATOM      8  N   UNL     1      28.307  -0.947  53.969  1.00  0.00    -0.306 NA
ATOM      9  C   UNL     1      28.460   0.200  54.849  1.00  0.00     0.105 C 
ATOM     10  C   UNL     1      29.564  -1.413  53.405  1.00  0.00     0.105 C 
ENDBRANCH   7   8
ENDBRANCH   6   7
ENDBRANCH   1   5
BRANCH   3  11
ATOM     11  C   UNL     1      25.003   3.583  49.987  1.00  0.00     0.085 A 
ATOM     12  C   UNL     1      25.916   4.603  49.727  1.00  0.00     0.044 A 
ATOM     13  C   UNL     1      23.716   3.656  49.430  1.00  0.00     0.145 A 
ATOM     14  C   UNL     1      25.571   5.699  48.896  1.00  0.00     0.045 A 
ATOM     15  C   UNL     1      23.373   4.752  48.636  1.00  0.00     0.077 A 
ATOM     16  C   UNL     1      26.433   6.763  48.554  1.00  0.00     0.141 A 
ATOM     17  C   UNL     1      24.280   5.768  48.358  1.00  0.00     0.080 A 
ATOM     18  N   UNL     1      26.022   7.784  47.781  1.00  0.00    -0.219 NA
ATOM     19  N   UNL     1      23.872   6.776  47.584  1.00  0.00    -0.236 NA
ATOM     20  C   UNL     1      24.764   7.741  47.336  1.00  0.00     0.224 A 
BRANCH  13  21
ATOM     21  O   UNL     1      22.885   2.606  49.738  1.00  0.00    -0.486 OA
BRANCH  21  22
ATOM     22  C   UNL     1      21.667   2.873  50.447  1.00  0.00     0.201 C 
ATOM     23  C   UNL     1      20.523   2.646  49.482  1.00  0.00     0.076 C 
ATOM     24  C   UNL     1      21.393   1.804  51.498  1.00  0.00     0.205 C 
ATOM     25  C   UNL     1      20.367   1.141  49.517  1.00  0.00     0.164 C 
ATOM     26  O   UNL     1      20.697   0.724  50.846  1.00  0.00    -0.377 OA
ENDBRANCH  21  22
ENDBRANCH  13  21
BRANCH  16  27
ATOM     27  N   UNL     1      27.767   6.754  49.046  1.00  0.00    -0.340 N 
ATOM     28  H   UNL     1      27.806   6.214  49.905  1.00  0.00     0.168 HD
BRANCH  27  29
ATOM     29  C   UNL     1      28.981   6.691  48.326  1.00  0.00     0.041 A 
ATOM     30  C   UNL     1      29.321   7.761  47.480  1.00  0.00     0.029 A 
ATOM     31  C   UNL     1      29.811   5.562  48.330  1.00  0.00     0.049 A 
ATOM     32  C   UNL     1      30.484   7.730  46.708  1.00  0.00     0.043 A 
ATOM     33  C   UNL     1      30.976   5.528  47.557  1.00  0.00     0.078 A 
ATOM     34  C   UNL     1      31.309   6.614  46.754  1.00  0.00     0.141 A 
ATOM     35  Cl  UNL     1      31.983   4.131  47.601  1.00  0.00    -0.081 Cl
ATOM     36  F   UNL     1      32.420   6.601  46.004  1.00  0.00    -0.205 F 
ENDBRANCH  27  29
ENDBRANCH  16  27
ENDBRANCH   3  11
TORSDOF 8
ENDMDL
MODEL 15
REMARK VINA RESULT:    -7.850      3.227      4.349
REMARK INTER + INTRA:         -13.222
REMARK INTER:                 -11.534
REMARK INTRA:                  -1.688
REMARK UNBOUND:                -1.701
REMARK SMILES CN(C)C/C=C/C(=O)Nc1cc2c(Nc3ccc(F)c(Cl)c3)ncnc2cc1O[C@H]1CCOC1
REMARK SMILES IDX 7 1 8 2 9 3 6 5 5 6 4 7 2 8 1 9 3 10 10 11 11 12 28 13 12 14
REMARK SMILES IDX 27 15 13 16 26 17 23 18 25 19 24 20 29 21 30 22 31 23 34 24
REMARK SMILES IDX 32 25 33 26 14 27 15 29 16 30 22 31 17 32 20 33 18 34 21 35
REMARK SMILES IDX 19 36
REMARK H PARENT 9 4 14 28
ROOT
ATOM      1  C   UNL     1      22.071   3.635  49.342  1.00  0.00     0.248 C 
ATOM      2  O   UNL     1      22.290   2.613  48.702  1.00  0.00    -0.270 OA
ATOM      3  N   UNL     1      21.928   3.747  50.702  1.00  0.00    -0.319 N 
ATOM      4  H   UNL     1      21.898   4.678  51.104  1.00  0.00     0.170 HD
ENDROOT
BRANCH   1   5
ATOM      5  C   UNL     1      22.029   4.937  48.621  1.00  0.00     0.068 C 
ATOM      6  C   UNL     1      23.127   5.595  48.211  1.00  0.00    -0.006 C 
BRANCH   6   7
ATOM      7  C   UNL     1      23.241   6.924  47.510  1.00  0.00     0.111 C 
BRANCH   7   8
ATOM      8  N   UNL     1      23.453   8.163  48.242  1.00  0.00    -0.306 NA
ATOM      9  C   UNL     1      24.306   8.043  49.415  1.00  0.00     0.105 C 
ATOM     10  C   UNL     1      22.259   8.958  48.476  1.00  0.00     0.105 C 
ENDBRANCH   7   8
ENDBRANCH   6   7
ENDBRANCH   1   5
BRANCH   3  11
ATOM     11  C   UNL     1      21.883   2.712  51.661  1.00  0.00     0.085 A 
ATOM     12  C   UNL     1      22.947   1.848  51.912  1.00  0.00     0.044 A 
ATOM     13  C   UNL     1      20.687   2.554  52.379  1.00  0.00     0.145 A 
ATOM     14  C   UNL     1      22.845   0.828  52.891  1.00  0.00     0.045 A 
ATOM     15  C   UNL     1      20.583   1.529  53.321  1.00  0.00     0.077 A 
ATOM     16  C   UNL     1      23.874  -0.075  53.234  1.00  0.00     0.141 A 
ATOM     17  C   UNL     1      21.642   0.670  53.590  1.00  0.00     0.080 A 
ATOM     18  N   UNL     1      23.691  -1.037  54.157  1.00  0.00    -0.219 NA
ATOM     19  N   UNL     1      21.460  -0.277  54.513  1.00  0.00    -0.236 NA
ATOM     20  C   UNL     1      22.495  -1.092  54.748  1.00  0.00     0.224 A 
BRANCH  13  21
ATOM     21  O   UNL     1      19.694   3.451  52.067  1.00  0.00    -0.486 OA
BRANCH  21  22
ATOM     22  C   UNL     1      18.448   2.955  51.559  1.00  0.00     0.201 C 
ATOM     23  C   UNL     1      17.625   4.151  51.131  1.00  0.00     0.076 C 
ATOM     24  C   UNL     1      18.642   2.231  50.232  1.00  0.00     0.205 C 
ATOM     25  C   UNL     1      18.204   4.469  49.770  1.00  0.00     0.164 C 
ATOM     26  O   UNL     1      18.594   3.221  49.187  1.00  0.00    -0.377 OA
ENDBRANCH  21  22
ENDBRANCH  13  21
BRANCH  16  27
ATOM     27  N   UNL     1      25.132   0.033  52.581  1.00  0.00    -0.340 N 
ATOM     28  H   UNL     1      24.991   0.362  51.631  1.00  0.00     0.168 HD
BRANCH  27  29
ATOM     29  C   UNL     1      26.375   0.452  53.107  1.00  0.00     0.041 A 
ATOM     30  C   UNL     1      26.547   1.808  53.434  1.00  0.00     0.029 A 
ATOM     31  C   UNL     1      27.483  -0.400  53.213  1.00  0.00     0.049 A 
ATOM     32  C   UNL     1      27.770   2.287  53.911  1.00  0.00     0.043 A 
ATOM     33  C   UNL     1      28.708   0.077  53.688  1.00  0.00     0.078 A 
ATOM     34  C   UNL     1      28.843   1.416  54.039  1.00  0.00     0.141 A 
ATOM     35  Cl  UNL     1      30.044  -1.002  53.823  1.00  0.00    -0.081 Cl
ATOM     36  F   UNL     1      30.010   1.894  54.496  1.00  0.00    -0.205 F 
ENDBRANCH  27  29
ENDBRANCH  16  27
ENDBRANCH   3  11
TORSDOF 8
ENDMDL
MODEL 16
REMARK VINA RESULT:    -7.831      3.865      7.336
REMARK INTER + INTRA:         -13.194
REMARK INTER:                 -11.893
REMARK INTRA:                  -1.301
REMARK UNBOUND:                -1.701
REMARK SMILES CN(C)C/C=C/C(=O)Nc1cc2c(Nc3ccc(F)c(Cl)c3)ncnc2cc1O[C@H]1CCOC1
REMARK SMILES IDX 7 1 8 2 9 3 6 5 5 6 4 7 2 8 1 9 3 10 10 11 11 12 28 13 12 14
REMARK SMILES IDX 27 15 13 16 26 17 23 18 25 19 24 20 29 21 30 22 31 23 34 24
REMARK SMILES IDX 32 25 33 26 14 27 15 29 16 30 22 31 17 32 20 33 18 34 21 35
REMARK SMILES IDX 19 36
REMARK H PARENT 9 4 14 28
ROOT
ATOM      1  C   UNL     1      26.097   2.118  51.278  1.00  0.00     0.248 C 
ATOM      2  O   UNL     1      26.640   3.139  50.873  1.00  0.00    -0.270 OA
ATOM      3  N   UNL     1      24.750   1.884  51.392  1.00  0.00    -0.319 N 
ATOM      4  H   UNL     1      24.445   0.939  51.602  1.00  0.00     0.170 HD
ENDROOT
BRANCH   1   5
ATOM      5  C   UNL     1      26.944   0.941  51.617  1.00  0.00     0.068 C 
ATOM      6  C   UNL     1      26.627   0.045  52.567  1.00  0.00    -0.006 C 
BRANCH   6   7
ATOM      7  C   UNL     1      27.395  -1.162  53.040  1.00  0.00     0.111 C 
BRANCH   7   8
ATOM      8  N   UNL     1      28.469  -1.055  54.015  1.00  0.00    -0.306 NA
ATOM      9  C   UNL     1      28.435   0.147  54.834  1.00  0.00     0.105 C 
ATOM     10  C   UNL     1      29.796  -1.376  53.516  1.00  0.00     0.105 C 
ENDBRANCH   7   8
ENDBRANCH   6   7
ENDBRANCH   1   5
BRANCH   3  11
ATOM     11  C   UNL     1      23.688   2.791  51.184  1.00  0.00     0.085 A 
ATOM     12  C   UNL     1      23.714   3.800  50.224  1.00  0.00     0.044 A 
ATOM     13  C   UNL     1      22.562   2.660  52.012  1.00  0.00     0.145 A 
ATOM     14  C   UNL     1      22.615   4.680  50.059  1.00  0.00     0.045 A 
ATOM     15  C   UNL     1      21.495   3.549  51.865  1.00  0.00     0.077 A 
ATOM     16  C   UNL     1      22.536   5.712  49.099  1.00  0.00     0.141 A 
ATOM     17  C   UNL     1      21.503   4.550  50.900  1.00  0.00     0.080 A 
ATOM     18  N   UNL     1      21.469   6.527  49.023  1.00  0.00    -0.219 NA
ATOM     19  N   UNL     1      20.438   5.351  50.821  1.00  0.00    -0.236 NA
ATOM     20  C   UNL     1      20.475   6.308  49.887  1.00  0.00     0.224 A 
BRANCH  13  21
ATOM     21  O   UNL     1      22.624   1.637  52.928  1.00  0.00    -0.486 OA
BRANCH  21  22
ATOM     22  C   UNL     1      21.674   0.566  52.833  1.00  0.00     0.201 C 
ATOM     23  C   UNL     1      22.452  -0.732  52.869  1.00  0.00     0.076 C 
ATOM     24  C   UNL     1      20.839   0.454  54.103  1.00  0.00     0.205 C 
ATOM     25  C   UNL     1      22.706  -0.914  54.349  1.00  0.00     0.164 C 
ATOM     26  O   UNL     1      21.572  -0.369  55.032  1.00  0.00    -0.377 OA
ENDBRANCH  21  22
ENDBRANCH  13  21
BRANCH  16  27
ATOM     27  N   UNL     1      23.618   5.896  48.195  1.00  0.00    -0.340 N 
ATOM     28  H   UNL     1      23.256   6.002  47.253  1.00  0.00     0.168 HD
BRANCH  27  29
ATOM     29  C   UNL     1      24.824   6.609  48.382  1.00  0.00     0.041 A 
ATOM     30  C   UNL     1      26.013   5.885  48.578  1.00  0.00     0.029 A 
ATOM     31  C   UNL     1      24.874   8.005  48.493  1.00  0.00     0.049 A 
ATOM     32  C   UNL     1      27.225   6.537  48.816  1.00  0.00     0.043 A 
ATOM     33  C   UNL     1      26.085   8.660  48.733  1.00  0.00     0.078 A 
ATOM     34  C   UNL     1      27.255   7.923  48.888  1.00  0.00     0.141 A 
ATOM     35  Cl  UNL     1      26.113  10.379  48.844  1.00  0.00    -0.081 Cl
ATOM     36  F   UNL     1      28.427   8.532  49.120  1.00  0.00    -0.205 F 
ENDBRANCH  27  29
ENDBRANCH  16  27
ENDBRANCH   3  11
TORSDOF 8
ENDMDL
MODEL 17
REMARK VINA RESULT:    -7.713      2.676      3.737
REMARK INTER + INTRA:         -13.020
REMARK INTER:                 -11.687
REMARK INTRA:                  -1.333
REMARK UNBOUND:                -1.701
REMARK SMILES CN(C)C/C=C/C(=O)Nc1cc2c(Nc3ccc(F)c(Cl)c3)ncnc2cc1O[C@H]1CCOC1
REMARK SMILES IDX 7 1 8 2 9 3 6 5 5 6 4 7 2 8 1 9 3 10 10 11 11 12 28 13 12 14
REMARK SMILES IDX 27 15 13 16 26 17 23 18 25 19 24 20 29 21 30 22 31 23 34 24
REMARK SMILES IDX 32 25 33 26 14 27 15 29 16 30 22 31 17 32 20 33 18 34 21 35
REMARK SMILES IDX 19 36
REMARK H PARENT 9 4 14 28
ROOT
ATOM      1  C   UNL     1      27.729   5.417  48.717  1.00  0.00     0.248 C 
ATOM      2  O   UNL     1      27.640   4.195  48.734  1.00  0.00    -0.270 OA
ATOM      3  N   UNL     1      26.770   6.324  49.093  1.00  0.00    -0.319 N 
ATOM      4  H   UNL     1      27.037   7.300  49.166  1.00  0.00     0.170 HD
ENDROOT
BRANCH   1   5
ATOM      5  C   UNL     1      29.028   6.036  48.337  1.00  0.00     0.068 C 
ATOM      6  C   UNL     1      30.113   5.328  47.979  1.00  0.00    -0.006 C 
BRANCH   6   7
ATOM      7  C   UNL     1      31.491   5.809  47.606  1.00  0.00     0.111 C 
BRANCH   7   8
ATOM      8  N   UNL     1      32.366   5.035  46.739  1.00  0.00    -0.306 NA
ATOM      9  C   UNL     1      32.127   3.601  46.750  1.00  0.00     0.105 C 
ATOM     10  C   UNL     1      33.776   5.386  46.806  1.00  0.00     0.105 C 
ENDBRANCH   7   8
ENDBRANCH   6   7
ENDBRANCH   1   5
BRANCH   3  11
ATOM     11  C   UNL     1      25.433   6.071  49.469  1.00  0.00     0.085 A 
ATOM     12  C   UNL     1      25.076   5.352  50.608  1.00  0.00     0.044 A 
ATOM     13  C   UNL     1      24.424   6.568  48.628  1.00  0.00     0.145 A 
ATOM     14  C   UNL     1      23.715   5.133  50.938  1.00  0.00     0.045 A 
ATOM     15  C   UNL     1      23.086   6.323  48.942  1.00  0.00     0.077 A 
ATOM     16  C   UNL     1      23.256   4.443  52.080  1.00  0.00     0.141 A 
ATOM     17  C   UNL     1      22.718   5.620  50.083  1.00  0.00     0.080 A 
ATOM     18  N   UNL     1      21.945   4.250  52.309  1.00  0.00    -0.219 NA
ATOM     19  N   UNL     1      21.416   5.438  50.313  1.00  0.00    -0.236 NA
ATOM     20  C   UNL     1      21.091   4.755  51.416  1.00  0.00     0.224 A 
BRANCH  13  21
ATOM     21  O   UNL     1      24.869   7.266  47.531  1.00  0.00    -0.486 OA
BRANCH  21  22
ATOM     22  C   UNL     1      24.318   8.564  47.267  1.00  0.00     0.201 C 
ATOM     23  C   UNL     1      25.067   9.556  48.131  1.00  0.00     0.076 C 
ATOM     24  C   UNL     1      24.682   9.045  45.868  1.00  0.00     0.205 C 
ATOM     25  C   UNL     1      26.331   9.787  47.332  1.00  0.00     0.164 C 
ATOM     26  O   UNL     1      25.970   9.684  45.950  1.00  0.00    -0.377 OA
ENDBRANCH  21  22
ENDBRANCH  13  21
BRANCH  16  27
ATOM     27  N   UNL     1      24.207   3.934  53.006  1.00  0.00    -0.340 N 
ATOM     28  H   UNL     1      24.084   4.395  53.902  1.00  0.00     0.168 HD
BRANCH  27  29
ATOM     29  C   UNL     1      24.691   2.615  53.152  1.00  0.00     0.041 A 
ATOM     30  C   UNL     1      23.829   1.544  52.858  1.00  0.00     0.029 A 
ATOM     31  C   UNL     1      25.955   2.321  53.682  1.00  0.00     0.049 A 
ATOM     32  C   UNL     1      24.238   0.219  53.032  1.00  0.00     0.043 A 
ATOM     33  C   UNL     1      26.366   0.997  53.857  1.00  0.00     0.078 A 
ATOM     34  C   UNL     1      25.508  -0.047  53.526  1.00  0.00     0.141 A 
ATOM     35  Cl  UNL     1      27.933   0.672  54.493  1.00  0.00    -0.081 Cl
ATOM     36  F   UNL     1      25.882  -1.325  53.688  1.00  0.00    -0.205 F 
ENDBRANCH  27  29
ENDBRANCH  16  27
ENDBRANCH   3  11
TORSDOF 8
ENDMDL
MODEL 18
REMARK VINA RESULT:    -7.698      3.575      4.798
REMARK INTER + INTRA:         -12.999
REMARK INTER:                 -11.738
REMARK INTRA:                  -1.260
REMARK UNBOUND:                -1.701
REMARK SMILES CN(C)C/C=C/C(=O)Nc1cc2c(Nc3ccc(F)c(Cl)c3)ncnc2cc1O[C@H]1CCOC1
REMARK SMILES IDX 7 1 8 2 9 3 6 5 5 6 4 7 2 8 1 9 3 10 10 11 11 12 28 13 12 14
REMARK SMILES IDX 27 15 13 16 26 17 23 18 25 19 24 20 29 21 30 22 31 23 34 24
REMARK SMILES IDX 32 25 33 26 14 27 15 29 16 30 22 31 17 32 20 33 18 34 21 35
REMARK SMILES IDX 19 36
REMARK H PARENT 9 4 14 28
ROOT
ATOM      1  C   UNL     1      21.755   4.975  50.775  1.00  0.00     0.248 C 
ATOM      2  O   UNL     1      22.178   5.561  51.765  1.00  0.00    -0.270 OA
ATOM      3  N   UNL     1      21.397   3.654  50.683  1.00  0.00    -0.319 N 
ATOM      4  H   UNL     1      20.923   3.345  49.840  1.00  0.00     0.170 HD
ENDROOT
BRANCH   1   5
ATOM      5  C   UNL     1      21.504   5.757  49.533  1.00  0.00     0.068 C 
ATOM      6  C   UNL     1      22.259   5.656  48.426  1.00  0.00    -0.006 C 
BRANCH   6   7
ATOM      7  C   UNL     1      22.149   6.400  47.121  1.00  0.00     0.111 C 
BRANCH   7   8
ATOM      8  N   UNL     1      21.384   5.875  45.999  1.00  0.00    -0.306 NA
ATOM      9  C   UNL     1      19.941   5.901  46.177  1.00  0.00     0.105 C 
ATOM     10  C   UNL     1      21.875   4.624  45.445  1.00  0.00     0.105 C 
ENDBRANCH   7   8
ENDBRANCH   6   7
ENDBRANCH   1   5
BRANCH   3  11
ATOM     11  C   UNL     1      21.538   2.643  51.658  1.00  0.00     0.085 A 
ATOM     12  C   UNL     1      22.727   1.953  51.885  1.00  0.00     0.044 A 
ATOM     13  C   UNL     1      20.402   2.321  52.418  1.00  0.00     0.145 A 
ATOM     14  C   UNL     1      22.811   0.948  52.882  1.00  0.00     0.045 A 
ATOM     15  C   UNL     1      20.483   1.311  53.378  1.00  0.00     0.077 A 
ATOM     16  C   UNL     1      23.973   0.216  53.203  1.00  0.00     0.141 A 
ATOM     17  C   UNL     1      21.667   0.626  53.623  1.00  0.00     0.080 A 
ATOM     18  N   UNL     1      23.966  -0.745  54.144  1.00  0.00    -0.219 NA
ATOM     19  N   UNL     1      21.659  -0.321  54.565  1.00  0.00    -0.236 NA
ATOM     20  C   UNL     1      22.811  -0.966  54.777  1.00  0.00     0.224 A 
BRANCH  13  21
ATOM     21  O   UNL     1      19.277   3.054  52.128  1.00  0.00    -0.486 OA
BRANCH  21  22
ATOM     22  C   UNL     1      18.122   2.374  51.616  1.00  0.00     0.201 C 
ATOM     23  C   UNL     1      16.960   3.341  51.687  1.00  0.00     0.076 C 
ATOM     24  C   UNL     1      18.236   2.147  50.113  1.00  0.00     0.205 C 
ATOM     25  C   UNL     1      17.170   4.188  50.451  1.00  0.00     0.164 C 
ATOM     26  O   UNL     1      17.743   3.332  49.458  1.00  0.00    -0.377 OA
ENDBRANCH  21  22
ENDBRANCH  13  21
BRANCH  16  27
ATOM     27  N   UNL     1      25.180   0.499  52.506  1.00  0.00    -0.340 N 
ATOM     28  H   UNL     1      25.093   1.392  52.031  1.00  0.00     0.168 HD
BRANCH  27  29
ATOM     29  C   UNL     1      26.513   0.231  52.888  1.00  0.00     0.041 A 
ATOM     30  C   UNL     1      27.015  -1.072  52.721  1.00  0.00     0.029 A 
ATOM     31  C   UNL     1      27.326   1.174  53.531  1.00  0.00     0.049 A 
ATOM     32  C   UNL     1      28.309  -1.406  53.127  1.00  0.00     0.043 A 
ATOM     33  C   UNL     1      28.621   0.843  53.940  1.00  0.00     0.078 A 
ATOM     34  C   UNL     1      29.107  -0.444  53.731  1.00  0.00     0.141 A 
ATOM     35  Cl  UNL     1      29.599   2.033  54.710  1.00  0.00    -0.081 Cl
ATOM     36  F   UNL     1      30.346  -0.783  54.116  1.00  0.00    -0.205 F 
ENDBRANCH  27  29
ENDBRANCH  16  27
ENDBRANCH   3  11
TORSDOF 8
ENDMDL
MODEL 19
REMARK VINA RESULT:    -7.585      3.062      4.310
REMARK INTER + INTRA:         -12.833
REMARK INTER:                 -11.622
REMARK INTRA:                  -1.211
REMARK UNBOUND:                -1.701
REMARK SMILES CN(C)C/C=C/C(=O)Nc1cc2c(Nc3ccc(F)c(Cl)c3)ncnc2cc1O[C@H]1CCOC1
REMARK SMILES IDX 7 1 8 2 9 3 6 5 5 6 4 7 2 8 1 9 3 10 10 11 11 12 28 13 12 14
REMARK SMILES IDX 27 15 13 16 26 17 23 18 25 19 24 20 29 21 30 22 31 23 34 24
REMARK SMILES IDX 32 25 33 26 14 27 15 29 16 30 22 31 17 32 20 33 18 34 21 35
REMARK SMILES IDX 19 36
REMARK H PARENT 9 4 14 28
ROOT
ATOM      1  C   UNL     1      27.782   5.130  48.776  1.00  0.00     0.248 C 
ATOM      2  O   UNL     1      27.532   3.930  48.769  1.00  0.00    -0.270 OA
ATOM      3  N   UNL     1      27.002   6.136  49.288  1.00  0.00    -0.319 N 
ATOM      4  H   UNL     1      27.405   7.065  49.356  1.00  0.00     0.170 HD
ENDROOT
BRANCH   1   5
ATOM      5  C   UNL     1      29.100   5.590  48.260  1.00  0.00     0.068 C 
ATOM      6  C   UNL     1      29.495   6.875  48.270  1.00  0.00    -0.006 C 
BRANCH   6   7
ATOM      7  C   UNL     1      30.771   7.489  47.755  1.00  0.00     0.111 C 
BRANCH   7   8
ATOM      8  N   UNL     1      31.223   7.286  46.387  1.00  0.00    -0.306 NA
ATOM      9  C   UNL     1      32.667   7.235  46.221  1.00  0.00     0.105 C 
ATOM     10  C   UNL     1      30.556   8.102  45.385  1.00  0.00     0.105 C 
ENDBRANCH   7   8
ENDBRANCH   6   7
ENDBRANCH   1   5
BRANCH   3  11
ATOM     11  C   UNL     1      25.696   6.043  49.815  1.00  0.00     0.085 A 
ATOM     12  C   UNL     1      25.055   4.834  50.077  1.00  0.00     0.044 A 
ATOM     13  C   UNL     1      25.019   7.247  50.067  1.00  0.00     0.145 A 
ATOM     14  C   UNL     1      23.741   4.803  50.610  1.00  0.00     0.045 A 
ATOM     15  C   UNL     1      23.715   7.210  50.564  1.00  0.00     0.077 A 
ATOM     16  C   UNL     1      23.022   3.633  50.932  1.00  0.00     0.141 A 
ATOM     17  C   UNL     1      23.071   6.011  50.843  1.00  0.00     0.080 A 
ATOM     18  N   UNL     1      21.765   3.685  51.409  1.00  0.00    -0.219 NA
ATOM     19  N   UNL     1      21.827   6.066  51.325  1.00  0.00    -0.236 NA
ATOM     20  C   UNL     1      21.230   4.896  51.580  1.00  0.00     0.224 A 
BRANCH  13  21
ATOM     21  O   UNL     1      25.729   8.389  49.781  1.00  0.00    -0.486 OA
BRANCH  21  22
ATOM     22  C   UNL     1      25.206   9.302  48.807  1.00  0.00     0.201 C 
ATOM     23  C   UNL     1      26.235  10.396  48.614  1.00  0.00     0.076 C 
ATOM     24  C   UNL     1      25.173   8.671  47.420  1.00  0.00     0.205 C 
ATOM     25  C   UNL     1      27.222   9.747  47.669  1.00  0.00     0.164 C 
ATOM     26  O   UNL     1      26.466   8.877  46.819  1.00  0.00    -0.377 OA
ENDBRANCH  21  22
ENDBRANCH  13  21
BRANCH  16  27
ATOM     27  N   UNL     1      23.643   2.369  50.741  1.00  0.00    -0.340 N 
ATOM     28  H   UNL     1      24.219   2.399  49.906  1.00  0.00     0.168 HD
BRANCH  27  29
ATOM     29  C   UNL     1      24.157   1.474  51.706  1.00  0.00     0.041 A 
ATOM     30  C   UNL     1      25.542   1.236  51.735  1.00  0.00     0.029 A 
ATOM     31  C   UNL     1      23.340   0.726  52.564  1.00  0.00     0.049 A 
ATOM     32  C   UNL     1      26.100   0.324  52.634  1.00  0.00     0.043 A 
ATOM     33  C   UNL     1      23.896  -0.188  53.464  1.00  0.00     0.078 A 
ATOM     34  C   UNL     1      25.273  -0.380  53.498  1.00  0.00     0.141 A 
ATOM     35  Cl  UNL     1      22.862  -1.076  54.518  1.00  0.00    -0.081 Cl
ATOM     36  F   UNL     1      25.826  -1.253  54.353  1.00  0.00    -0.205 F 
ENDBRANCH  27  29
ENDBRANCH  16  27
ENDBRANCH   3  11
TORSDOF 8
ENDMDL
MODEL 20
REMARK VINA RESULT:    -7.582      3.763      7.096
REMARK INTER + INTRA:         -12.829
REMARK INTER:                 -11.854
REMARK INTRA:                  -0.975
REMARK UNBOUND:                -1.701
REMARK SMILES CN(C)C/C=C/C(=O)Nc1cc2c(Nc3ccc(F)c(Cl)c3)ncnc2cc1O[C@H]1CCOC1
REMARK SMILES IDX 7 1 8 2 9 3 6 5 5 6 4 7 2 8 1 9 3 10 10 11 11 12 28 13 12 14
REMARK SMILES IDX 27 15 13 16 26 17 23 18 25 19 24 20 29 21 30 22 31 23 34 24
REMARK SMILES IDX 32 25 33 26 14 27 15 29 16 30 22 31 17 32 20 33 18 34 21 35
REMARK SMILES IDX 19 36
REMARK H PARENT 9 4 14 28
ROOT
ATOM      1  C   UNL     1      25.656   2.544  51.153  1.00  0.00     0.248 C 
ATOM      2  O   UNL     1      25.735   2.989  50.015  1.00  0.00    -0.270 OA
ATOM      3  N   UNL     1      24.525   2.426  51.922  1.00  0.00    -0.319 N 
ATOM      4  H   UNL     1      24.589   1.902  52.788  1.00  0.00     0.170 HD
ENDROOT
BRANCH   1   5
ATOM      5  C   UNL     1      26.878   1.977  51.788  1.00  0.00     0.068 C 
ATOM      6  C   UNL     1      27.243   2.230  53.056  1.00  0.00    -0.006 C 
BRANCH   6   7
ATOM      7  C   UNL     1      28.458   1.762  53.814  1.00  0.00     0.111 C 
BRANCH   7   8
ATOM      8  N   UNL     1      28.466   0.508  54.552  1.00  0.00    -0.306 NA
ATOM      9  C   UNL     1      29.269  -0.549  53.954  1.00  0.00     0.105 C 
ATOM     10  C   UNL     1      27.166   0.052  55.017  1.00  0.00     0.105 C 
ENDBRANCH   7   8
ENDBRANCH   6   7
ENDBRANCH   1   5
BRANCH   3  11
ATOM     11  C   UNL     1      23.224   2.890  51.633  1.00  0.00     0.085 A 
ATOM     12  C   UNL     1      22.954   3.905  50.717  1.00  0.00     0.044 A 
ATOM     13  C   UNL     1      22.160   2.293  52.329  1.00  0.00     0.145 A 
ATOM     14  C   UNL     1      21.624   4.328  50.465  1.00  0.00     0.045 A 
ATOM     15  C   UNL     1      20.856   2.734  52.098  1.00  0.00     0.077 A 
ATOM     16  C   UNL     1      21.249   5.325  49.541  1.00  0.00     0.141 A 
ATOM     17  C   UNL     1      20.573   3.735  51.177  1.00  0.00     0.080 A 
ATOM     18  N   UNL     1      19.965   5.692  49.379  1.00  0.00    -0.219 NA
ATOM     19  N   UNL     1      19.297   4.091  51.012  1.00  0.00    -0.236 NA
ATOM     20  C   UNL     1      19.054   5.060  50.121  1.00  0.00     0.224 A 
BRANCH  13  21
ATOM     21  O   UNL     1      22.521   1.301  53.209  1.00  0.00    -0.486 OA
BRANCH  21  22
ATOM     22  C   UNL     1      22.093  -0.043  52.947  1.00  0.00     0.201 C 
ATOM     23  C   UNL     1      23.219  -0.965  53.364  1.00  0.00     0.076 C 
ATOM     24  C   UNL     1      20.985  -0.467  53.905  1.00  0.00     0.205 C 
ATOM     25  C   UNL     1      23.024  -1.055  54.862  1.00  0.00     0.164 C 
ATOM     26  O   UNL     1      21.614  -0.972  55.099  1.00  0.00    -0.377 OA
ENDBRANCH  21  22
ENDBRANCH  13  21
BRANCH  16  27
ATOM     27  N   UNL     1      22.258   5.961  48.766  1.00  0.00    -0.340 N 
ATOM     28  H   UNL     1      21.823   6.515  48.035  1.00  0.00     0.168 HD
BRANCH  27  29
ATOM     29  C   UNL     1      23.488   6.514  49.187  1.00  0.00     0.041 A 
ATOM     30  C   UNL     1      23.470   7.591  50.090  1.00  0.00     0.029 A 
ATOM     31  C   UNL     1      24.724   6.113  48.662  1.00  0.00     0.049 A 
ATOM     32  C   UNL     1      24.653   8.209  50.502  1.00  0.00     0.043 A 
ATOM     33  C   UNL     1      25.909   6.730  49.071  1.00  0.00     0.078 A 
ATOM     34  C   UNL     1      25.868   7.771  49.993  1.00  0.00     0.141 A 
ATOM     35  Cl  UNL     1      27.412   6.199  48.419  1.00  0.00    -0.081 Cl
ATOM     36  F   UNL     1      26.993   8.378  50.398  1.00  0.00    -0.205 F 
ENDBRANCH  27  29
ENDBRANCH  16  27
ENDBRANCH   3  11
TORSDOF 8
ENDMDL
