MODEL 1
REMARK VINA RESULT:    -9.285      0.000      0.000
REMARK INTER + INTRA:         -13.347
REMARK INTER:                 -12.542
REMARK INTRA:                  -0.805
REMARK UNBOUND:                -0.805
REMARK SMILES CNC(=O)c1cc(Oc2ccc(NC(=O)Nc3ccc(Cl)c(C(F)(F)F)c3)cc2)ccn1
REMARK SMILES IDX 9 1 10 2 11 3 12 4 28 5 29 6 8 7 7 8 5 9 6 10 32 11 31 12
REMARK SMILES IDX 30 13 3 14 2 15 4 16 1 17 13 19 14 20 15 21 16 22 17 25
REMARK SMILES IDX 18 26 27 27 19 28 22 29 20 30 21 31 23 32 24 33 25 34 26 35
REMARK H PARENT 2 18 13 23 16 24
ROOT
ATOM      1  C   UNL     1      27.687   6.083  48.375  1.00  0.00     0.127 A 
ATOM      2  C   UNL     1      26.715   6.968  48.834  1.00  0.00     0.049 A 
ATOM      3  C   UNL     1      25.708   6.503  49.683  1.00  0.00     0.030 A 
ATOM      4  C   UNL     1      25.659   5.154  50.067  1.00  0.00     0.043 A 
ATOM      5  C   UNL     1      26.627   4.275  49.569  1.00  0.00     0.030 A 
ATOM      6  C   UNL     1      27.635   4.737  48.718  1.00  0.00     0.049 A 
ENDROOT
BRANCH   1   7
ATOM      7  O   UNL     1      28.670   6.515  47.522  1.00  0.00    -0.457 OA
BRANCH   7   8
ATOM      8  C   UNL     1      29.899   6.835  48.059  1.00  0.00     0.131 A 
ATOM      9  C   UNL     1      32.133   6.112  48.455  1.00  0.00     0.131 A 
ATOM     10  C   UNL     1      30.880   5.859  47.917  1.00  0.00     0.081 A 
ATOM     11  N   UNL     1      32.462   7.261  49.113  1.00  0.00    -0.251 NA
ATOM     12  C   UNL     1      31.482   8.179  49.238  1.00  0.00     0.116 A 
ATOM     13  C   UNL     1      30.200   8.015  48.739  1.00  0.00     0.067 A 
BRANCH   9  14
ATOM     14  C   UNL     1      33.212   5.078  48.347  1.00  0.00     0.269 C 
ATOM     15  N   UNL     1      32.756   3.813  48.039  1.00  0.00    -0.354 N 
ATOM     16  O   UNL     1      34.392   5.365  48.506  1.00  0.00    -0.268 OA
ATOM     17  C   UNL     1      33.648   2.725  47.743  1.00  0.00     0.143 C 
ATOM     18  H   UNL     1      31.765   3.739  47.825  1.00  0.00     0.163 HD
ENDBRANCH   9  14
ENDBRANCH   7   8
ENDBRANCH   1   7
BRANCH   4  19
ATOM     19  N   UNL     1      24.614   4.772  50.937  1.00  0.00    -0.308 N 
ATOM     20  C   UNL     1      23.844   3.617  50.880  1.00  0.00     0.323 C 
ATOM     21  O   UNL     1      23.971   2.731  50.045  1.00  0.00    -0.248 OA
ATOM     22  N   UNL     1      22.911   3.603  51.910  1.00  0.00    -0.308 N 
ATOM     23  H   UNL     1      24.442   5.394  51.709  1.00  0.00     0.171 HD
ATOM     24  H   UNL     1      22.892   4.414  52.509  1.00  0.00     0.171 HD
BRANCH  22  25
ATOM     25  C   UNL     1      21.968   2.595  52.204  1.00  0.00     0.043 A 
ATOM     26  C   UNL     1      20.636   2.623  51.796  1.00  0.00     0.028 A 
ATOM     27  C   UNL     1      22.416   1.499  52.954  1.00  0.00     0.040 A 
ATOM     28  C   UNL     1      19.771   1.577  52.129  1.00  0.00     0.023 A 
ATOM     29  C   UNL     1      21.556   0.433  53.295  1.00  0.00     0.076 A 
ATOM     30  C   UNL     1      20.226   0.486  52.871  1.00  0.00     0.053 A 
ATOM     31  Cl  UNL     1      19.097  -0.769  53.220  1.00  0.00    -0.084 Cl
BRANCH  29  32
ATOM     32  C   UNL     1      22.089  -0.742  54.071  1.00  0.00     0.417 C 
ATOM     33  F   UNL     1      21.391  -0.974  55.223  1.00  0.00    -0.166 F 
ATOM     34  F   UNL     1      22.042  -1.917  53.384  1.00  0.00    -0.166 F 
ATOM     35  F   UNL     1      23.382  -0.569  54.464  1.00  0.00    -0.166 F 
ENDBRANCH  29  32
ENDBRANCH  22  25
ENDBRANCH   4  19
TORSDOF 6
ENDMDL
MODEL 2
REMARK VINA RESULT:    -9.124      1.709      2.339
REMARK INTER + INTRA:         -13.129
REMARK INTER:                 -13.024
REMARK INTRA:                  -0.106
REMARK UNBOUND:                -0.805
REMARK SMILES CNC(=O)c1cc(Oc2ccc(NC(=O)Nc3ccc(Cl)c(C(F)(F)F)c3)cc2)ccn1
REMARK SMILES IDX 9 1 10 2 11 3 12 4 28 5 29 6 8 7 7 8 5 9 6 10 32 11 31 12
REMARK SMILES IDX 30 13 3 14 2 15 4 16 1 17 13 19 14 20 15 21 16 22 17 25
REMARK SMILES IDX 18 26 27 27 19 28 22 29 20 30 21 31 23 32 24 33 25 34 26 35
REMARK H PARENT 2 18 13 23 16 24
ROOT
ATOM      1  C   UNL     1      27.773   6.492  48.185  1.00  0.00     0.127 A 
ATOM      2  C   UNL     1      28.153   5.177  48.441  1.00  0.00     0.049 A 
ATOM      3  C   UNL     1      27.217   4.280  48.962  1.00  0.00     0.030 A 
ATOM      4  C   UNL     1      25.905   4.692  49.240  1.00  0.00     0.043 A 
ATOM      5  C   UNL     1      25.553   6.026  49.005  1.00  0.00     0.030 A 
ATOM      6  C   UNL     1      26.486   6.927  48.485  1.00  0.00     0.049 A 
ENDROOT
BRANCH   1   7
ATOM      7  O   UNL     1      28.683   7.394  47.696  1.00  0.00    -0.457 OA
BRANCH   7   8
ATOM      8  C   UNL     1      29.981   7.317  48.154  1.00  0.00     0.131 A 
ATOM      9  C   UNL     1      32.062   6.169  48.011  1.00  0.00     0.131 A 
ATOM     10  C   UNL     1      30.753   6.313  47.578  1.00  0.00     0.081 A 
ATOM     11  N   UNL     1      32.639   6.954  48.967  1.00  0.00    -0.251 NA
ATOM     12  C   UNL     1      31.857   7.909  49.508  1.00  0.00     0.116 A 
ATOM     13  C   UNL     1      30.538   8.126  49.144  1.00  0.00     0.067 A 
BRANCH   9  14
ATOM     14  C   UNL     1      32.922   5.085  47.436  1.00  0.00     0.269 C 
ATOM     15  N   UNL     1      33.928   4.655  48.275  1.00  0.00    -0.354 N 
ATOM     16  O   UNL     1      32.713   4.627  46.319  1.00  0.00    -0.268 OA
ATOM     17  C   UNL     1      34.756   3.521  47.964  1.00  0.00     0.143 C 
ATOM     18  H   UNL     1      33.918   5.042  49.215  1.00  0.00     0.163 HD
ENDBRANCH   9  14
ENDBRANCH   7   8
ENDBRANCH   1   7
BRANCH   4  19
ATOM     19  N   UNL     1      25.021   3.718  49.753  1.00  0.00    -0.308 N 
ATOM     20  C   UNL     1      25.181   2.948  50.898  1.00  0.00     0.323 C 
ATOM     21  O   UNL     1      26.140   3.012  51.657  1.00  0.00    -0.248 OA
ATOM     22  N   UNL     1      24.097   2.096  51.067  1.00  0.00    -0.308 N 
ATOM     23  H   UNL     1      24.159   3.604  49.247  1.00  0.00     0.171 HD
ATOM     24  H   UNL     1      23.390   2.121  50.349  1.00  0.00     0.171 HD
BRANCH  22  25
ATOM     25  C   UNL     1      23.877   1.180  52.119  1.00  0.00     0.043 A 
ATOM     26  C   UNL     1      24.882   0.439  52.737  1.00  0.00     0.028 A 
ATOM     27  C   UNL     1      22.557   1.018  52.560  1.00  0.00     0.040 A 
ATOM     28  C   UNL     1      24.575  -0.444  53.776  1.00  0.00     0.023 A 
ATOM     29  C   UNL     1      22.231   0.133  53.611  1.00  0.00     0.076 A 
ATOM     30  C   UNL     1      23.258  -0.596  54.214  1.00  0.00     0.053 A 
ATOM     31  Cl  UNL     1      22.971  -1.691  55.514  1.00  0.00    -0.084 Cl
BRANCH  29  32
ATOM     32  C   UNL     1      20.804   0.017  54.078  1.00  0.00     0.417 C 
ATOM     33  F   UNL     1      19.930   0.699  53.279  1.00  0.00    -0.166 F 
ATOM     34  F   UNL     1      20.340  -1.262  54.103  1.00  0.00    -0.166 F 
ATOM     35  F   UNL     1      20.618   0.526  55.329  1.00  0.00    -0.166 F 
ENDBRANCH  29  32
ENDBRANCH  22  25
ENDBRANCH   4  19
TORSDOF 6
ENDMDL
MODEL 3
REMARK VINA RESULT:    -8.833      2.894      4.442
REMARK INTER + INTRA:         -12.737
REMARK INTER:                 -12.383
REMARK INTRA:                  -0.354
REMARK UNBOUND:                -0.805
REMARK SMILES CNC(=O)c1cc(Oc2ccc(NC(=O)Nc3ccc(Cl)c(C(F)(F)F)c3)cc2)ccn1
REMARK SMILES IDX 9 1 10 2 11 3 12 4 28 5 29 6 8 7 7 8 5 9 6 10 32 11 31 12
REMARK SMILES IDX 30 13 3 14 2 15 4 16 1 17 13 19 14 20 15 21 16 22 17 25
REMARK SMILES IDX 18 26 27 27 19 28 22 29 20 30 21 31 23 32 24 33 25 34 26 35
REMARK H PARENT 2 18 13 23 16 24
ROOT
ATOM      1  C   UNL     1      27.999   6.813  47.902  1.00  0.00     0.127 A 
ATOM      2  C   UNL     1      26.686   7.203  48.155  1.00  0.00     0.049 A 
ATOM      3  C   UNL     1      25.802   6.299  48.747  1.00  0.00     0.030 A 
ATOM      4  C   UNL     1      26.217   5.000  49.077  1.00  0.00     0.043 A 
ATOM      5  C   UNL     1      27.531   4.617  48.785  1.00  0.00     0.030 A 
ATOM      6  C   UNL     1      28.419   5.519  48.191  1.00  0.00     0.049 A 
ENDROOT
BRANCH   1   7
ATOM      7  O   UNL     1      28.876   7.677  47.299  1.00  0.00    -0.457 OA
BRANCH   7   8
ATOM      8  C   UNL     1      29.482   8.635  48.083  1.00  0.00     0.131 A 
ATOM      9  C   UNL     1      29.546  10.934  48.701  1.00  0.00     0.131 A 
ATOM     10  C   UNL     1      28.965   9.920  47.953  1.00  0.00     0.081 A 
ATOM     11  N   UNL     1      30.592  10.747  49.556  1.00  0.00    -0.251 NA
ATOM     12  C   UNL     1      31.072   9.490  49.647  1.00  0.00     0.116 A 
ATOM     13  C   UNL     1      30.561   8.414  48.939  1.00  0.00     0.067 A 
BRANCH   9  14
ATOM     14  C   UNL     1      29.037  12.338  48.574  1.00  0.00     0.269 C 
ATOM     15  N   UNL     1      29.646  13.074  47.579  1.00  0.00    -0.354 N 
ATOM     16  O   UNL     1      28.141  12.762  49.294  1.00  0.00    -0.268 OA
ATOM     17  C   UNL     1      29.190  14.384  47.203  1.00  0.00     0.143 C 
ATOM     18  H   UNL     1      30.294  12.564  46.984  1.00  0.00     0.163 HD
ENDBRANCH   9  14
ENDBRANCH   7   8
ENDBRANCH   1   7
BRANCH   4  19
ATOM     19  N   UNL     1      25.262   4.155  49.683  1.00  0.00    -0.308 N 
ATOM     20  C   UNL     1      25.474   3.223  50.692  1.00  0.00     0.323 C 
ATOM     21  O   UNL     1      26.554   3.000  51.224  1.00  0.00    -0.248 OA
ATOM     22  N   UNL     1      24.285   2.582  51.020  1.00  0.00    -0.308 N 
ATOM     23  H   UNL     1      24.313   4.278  49.372  1.00  0.00     0.171 HD
ATOM     24  H   UNL     1      23.473   2.839  50.480  1.00  0.00     0.171 HD
BRANCH  22  25
ATOM     25  C   UNL     1      24.084   1.595  52.008  1.00  0.00     0.043 A 
ATOM     26  C   UNL     1      25.100   0.821  52.564  1.00  0.00     0.028 A 
ATOM     27  C   UNL     1      22.770   1.393  52.451  1.00  0.00     0.040 A 
ATOM     28  C   UNL     1      24.810  -0.133  53.543  1.00  0.00     0.023 A 
ATOM     29  C   UNL     1      22.461   0.436  53.443  1.00  0.00     0.076 A 
ATOM     30  C   UNL     1      23.500  -0.325  53.983  1.00  0.00     0.053 A 
ATOM     31  Cl  UNL     1      23.235  -1.509  55.208  1.00  0.00    -0.084 Cl
BRANCH  29  32
ATOM     32  C   UNL     1      21.041   0.277  53.916  1.00  0.00     0.417 C 
ATOM     33  F   UNL     1      20.185   1.164  53.325  1.00  0.00    -0.166 F 
ATOM     34  F   UNL     1      20.513  -0.951  53.659  1.00  0.00    -0.166 F 
ATOM     35  F   UNL     1      20.906   0.489  55.255  1.00  0.00    -0.166 F 
ENDBRANCH  29  32
ENDBRANCH  22  25
ENDBRANCH   4  19
TORSDOF 6
ENDMDL
MODEL 4
REMARK VINA RESULT:    -8.771      1.215      1.282
REMARK INTER + INTRA:         -12.652
REMARK INTER:                 -11.821
REMARK INTRA:                  -0.832
REMARK UNBOUND:                -0.805
REMARK SMILES CNC(=O)c1cc(Oc2ccc(NC(=O)Nc3ccc(Cl)c(C(F)(F)F)c3)cc2)ccn1
REMARK SMILES IDX 9 1 10 2 11 3 12 4 28 5 29 6 8 7 7 8 5 9 6 10 32 11 31 12
REMARK SMILES IDX 30 13 3 14 2 15 4 16 1 17 13 19 14 20 15 21 16 22 17 25
REMARK SMILES IDX 18 26 27 27 19 28 22 29 20 30 21 31 23 32 24 33 25 34 26 35
REMARK H PARENT 2 18 13 23 16 24
ROOT
ATOM      1  C   UNL     1      27.630   6.662  48.115  1.00  0.00     0.127 A 
ATOM      2  C   UNL     1      26.678   7.494  48.699  1.00  0.00     0.049 A 
ATOM      3  C   UNL     1      25.774   6.964  49.622  1.00  0.00     0.030 A 
ATOM      4  C   UNL     1      25.806   5.602  49.958  1.00  0.00     0.043 A 
ATOM      5  C   UNL     1      26.750   4.776  49.337  1.00  0.00     0.030 A 
ATOM      6  C   UNL     1      27.655   5.303  48.411  1.00  0.00     0.049 A 
ENDROOT
BRANCH   1   7
ATOM      7  O   UNL     1      28.510   7.157  47.189  1.00  0.00    -0.457 OA
BRANCH   7   8
ATOM      8  C   UNL     1      29.676   7.733  47.647  1.00  0.00     0.131 A 
ATOM      9  C   UNL     1      31.939   7.369  48.293  1.00  0.00     0.131 A 
ATOM     10  C   UNL     1      30.743   6.855  47.815  1.00  0.00     0.081 A 
ATOM     11  N   UNL     1      32.133   8.682  48.608  1.00  0.00    -0.251 NA
ATOM     12  C   UNL     1      31.074   9.499  48.441  1.00  0.00     0.116 A 
ATOM     13  C   UNL     1      29.839   9.079  47.974  1.00  0.00     0.067 A 
BRANCH   9  14
ATOM     14  C   UNL     1      33.107   6.455  48.512  1.00  0.00     0.269 C 
ATOM     15  N   UNL     1      34.335   7.078  48.434  1.00  0.00    -0.354 N 
ATOM     16  O   UNL     1      32.951   5.265  48.756  1.00  0.00    -0.268 OA
ATOM     17  C   UNL     1      35.561   6.403  48.767  1.00  0.00     0.143 C 
ATOM     18  H   UNL     1      34.314   8.089  48.337  1.00  0.00     0.163 HD
ENDBRANCH   9  14
ENDBRANCH   7   8
ENDBRANCH   1   7
BRANCH   4  19
ATOM     19  N   UNL     1      24.865   5.152  50.909  1.00  0.00    -0.308 N 
ATOM     20  C   UNL     1      24.061   4.021  50.837  1.00  0.00     0.323 C 
ATOM     21  O   UNL     1      24.061   3.220  49.911  1.00  0.00    -0.248 OA
ATOM     22  N   UNL     1      23.259   3.921  51.967  1.00  0.00    -0.308 N 
ATOM     23  H   UNL     1      24.804   5.698  51.752  1.00  0.00     0.171 HD
ATOM     24  H   UNL     1      23.336   4.668  52.639  1.00  0.00     0.171 HD
BRANCH  22  25
ATOM     25  C   UNL     1      22.331   2.904  52.277  1.00  0.00     0.043 A 
ATOM     26  C   UNL     1      20.969   2.970  51.988  1.00  0.00     0.028 A 
ATOM     27  C   UNL     1      22.826   1.758  52.912  1.00  0.00     0.040 A 
ATOM     28  C   UNL     1      20.121   1.912  52.327  1.00  0.00     0.023 A 
ATOM     29  C   UNL     1      21.983   0.678  53.257  1.00  0.00     0.076 A 
ATOM     30  C   UNL     1      20.622   0.771  52.955  1.00  0.00     0.053 A 
ATOM     31  Cl  UNL     1      19.510  -0.495  53.319  1.00  0.00    -0.084 Cl
BRANCH  29  32
ATOM     32  C   UNL     1      22.564  -0.549  53.906  1.00  0.00     0.417 C 
ATOM     33  F   UNL     1      22.071  -0.765  55.163  1.00  0.00    -0.166 F 
ATOM     34  F   UNL     1      22.312  -1.700  53.223  1.00  0.00    -0.166 F 
ATOM     35  F   UNL     1      23.916  -0.473  54.061  1.00  0.00    -0.166 F 
ENDBRANCH  29  32
ENDBRANCH  22  25
ENDBRANCH   4  19
TORSDOF 6
ENDMDL
MODEL 5
REMARK VINA RESULT:    -8.739      6.644     10.585
REMARK INTER + INTRA:         -12.609
REMARK INTER:                 -11.979
REMARK INTRA:                  -0.630
REMARK UNBOUND:                -0.805
REMARK SMILES CNC(=O)c1cc(Oc2ccc(NC(=O)Nc3ccc(Cl)c(C(F)(F)F)c3)cc2)ccn1
REMARK SMILES IDX 9 1 10 2 11 3 12 4 28 5 29 6 8 7 7 8 5 9 6 10 32 11 31 12
REMARK SMILES IDX 30 13 3 14 2 15 4 16 1 17 13 19 14 20 15 21 16 22 17 25
REMARK SMILES IDX 18 26 27 27 19 28 22 29 20 30 21 31 23 32 24 33 25 34 26 35
REMARK H PARENT 2 18 13 23 16 24
ROOT
ATOM      1  C   UNL     1      23.387   2.876  51.133  1.00  0.00     0.127 A 
ATOM      2  C   UNL     1      22.969   3.868  52.017  1.00  0.00     0.049 A 
ATOM      3  C   UNL     1      23.557   5.133  51.958  1.00  0.00     0.030 A 
ATOM      4  C   UNL     1      24.573   5.411  51.030  1.00  0.00     0.043 A 
ATOM      5  C   UNL     1      25.000   4.392  50.173  1.00  0.00     0.030 A 
ATOM      6  C   UNL     1      24.415   3.124  50.229  1.00  0.00     0.049 A 
ENDROOT
BRANCH   1   7
ATOM      7  O   UNL     1      22.839   1.621  51.190  1.00  0.00    -0.457 OA
BRANCH   7   8
ATOM      8  C   UNL     1      23.144   0.830  52.278  1.00  0.00     0.131 A 
ATOM      9  C   UNL     1      24.869  -0.246  53.517  1.00  0.00     0.131 A 
ATOM     10  C   UNL     1      24.498   0.561  52.453  1.00  0.00     0.081 A 
ATOM     11  N   UNL     1      23.986  -0.793  54.403  1.00  0.00    -0.251 NA
ATOM     12  C   UNL     1      22.683  -0.518  54.195  1.00  0.00     0.116 A 
ATOM     13  C   UNL     1      22.216   0.274  53.158  1.00  0.00     0.067 A 
BRANCH   9  14
ATOM     14  C   UNL     1      26.314  -0.581  53.730  1.00  0.00     0.269 C 
ATOM     15  N   UNL     1      27.025   0.383  54.413  1.00  0.00    -0.354 N 
ATOM     16  O   UNL     1      26.791  -1.638  53.334  1.00  0.00    -0.268 OA
ATOM     17  C   UNL     1      28.380   0.176  54.846  1.00  0.00     0.143 C 
ATOM     18  H   UNL     1      26.480   1.159  54.779  1.00  0.00     0.163 HD
ENDBRANCH   9  14
ENDBRANCH   7   8
ENDBRANCH   1   7
BRANCH   4  19
ATOM     19  N   UNL     1      25.104   6.719  51.032  1.00  0.00    -0.308 N 
ATOM     20  C   UNL     1      25.780   7.361  50.001  1.00  0.00     0.323 C 
ATOM     21  O   UNL     1      26.012   6.870  48.904  1.00  0.00    -0.248 OA
ATOM     22  N   UNL     1      26.151   8.643  50.387  1.00  0.00    -0.308 N 
ATOM     23  H   UNL     1      24.932   7.257  51.865  1.00  0.00     0.171 HD
ATOM     24  H   UNL     1      25.926   8.910  51.333  1.00  0.00     0.171 HD
BRANCH  22  25
ATOM     25  C   UNL     1      26.830   9.612  49.616  1.00  0.00     0.043 A 
ATOM     26  C   UNL     1      26.201  10.529  48.777  1.00  0.00     0.028 A 
ATOM     27  C   UNL     1      28.227   9.643  49.715  1.00  0.00     0.040 A 
ATOM     28  C   UNL     1      26.952  11.458  48.052  1.00  0.00     0.023 A 
ATOM     29  C   UNL     1      29.000  10.578  48.993  1.00  0.00     0.076 A 
ATOM     30  C   UNL     1      28.343  11.486  48.159  1.00  0.00     0.053 A 
ATOM     31  Cl  UNL     1      29.190  12.678  47.246  1.00  0.00    -0.084 Cl
BRANCH  29  32
ATOM     32  C   UNL     1      30.497  10.600  49.156  1.00  0.00     0.417 C 
ATOM     33  F   UNL     1      31.159  10.389  47.979  1.00  0.00    -0.166 F 
ATOM     34  F   UNL     1      30.978  11.782  49.628  1.00  0.00    -0.166 F 
ATOM     35  F   UNL     1      30.948   9.629  49.999  1.00  0.00    -0.166 F 
ENDBRANCH  29  32
ENDBRANCH  22  25
ENDBRANCH   4  19
TORSDOF 6
ENDMDL
MODEL 6
REMARK VINA RESULT:    -8.735      1.375      1.775
REMARK INTER + INTRA:         -12.604
REMARK INTER:                 -12.832
REMARK INTRA:                   0.228
REMARK UNBOUND:                -0.805
REMARK SMILES CNC(=O)c1cc(Oc2ccc(NC(=O)Nc3ccc(Cl)c(C(F)(F)F)c3)cc2)ccn1
REMARK SMILES IDX 9 1 10 2 11 3 12 4 28 5 29 6 8 7 7 8 5 9 6 10 32 11 31 12
REMARK SMILES IDX 30 13 3 14 2 15 4 16 1 17 13 19 14 20 15 21 16 22 17 25
REMARK SMILES IDX 18 26 27 27 19 28 22 29 20 30 21 31 23 32 24 33 25 34 26 35
REMARK H PARENT 2 18 13 23 16 24
ROOT
ATOM      1  C   UNL     1      27.900   6.448  48.242  1.00  0.00     0.127 A 
ATOM      2  C   UNL     1      26.836   7.179  48.766  1.00  0.00     0.049 A 
ATOM      3  C   UNL     1      25.847   6.522  49.500  1.00  0.00     0.030 A 
ATOM      4  C   UNL     1      25.905   5.135  49.705  1.00  0.00     0.043 A 
ATOM      5  C   UNL     1      26.965   4.414  49.144  1.00  0.00     0.030 A 
ATOM      6  C   UNL     1      27.957   5.068  48.407  1.00  0.00     0.049 A 
ENDROOT
BRANCH   1   7
ATOM      7  O   UNL     1      28.869   7.069  47.498  1.00  0.00    -0.457 OA
BRANCH   7   8
ATOM      8  C   UNL     1      30.103   7.270  48.079  1.00  0.00     0.131 A 
ATOM      9  C   UNL     1      32.266   6.364  48.489  1.00  0.00     0.131 A 
ATOM     10  C   UNL     1      31.013   6.232  47.910  1.00  0.00     0.081 A 
ATOM     11  N   UNL     1      32.660   7.451  49.214  1.00  0.00    -0.251 NA
ATOM     12  C   UNL     1      31.747   8.432  49.363  1.00  0.00     0.116 A 
ATOM     13  C   UNL     1      30.470   8.389  48.827  1.00  0.00     0.067 A 
BRANCH   9  14
ATOM     14  C   UNL     1      33.269   5.259  48.353  1.00  0.00     0.269 C 
ATOM     15  N   UNL     1      32.718   4.024  48.084  1.00  0.00    -0.354 N 
ATOM     16  O   UNL     1      34.471   5.470  48.459  1.00  0.00    -0.268 OA
ATOM     17  C   UNL     1      33.524   2.876  47.768  1.00  0.00     0.143 C 
ATOM     18  H   UNL     1      31.717   4.013  47.911  1.00  0.00     0.163 HD
ENDBRANCH   9  14
ENDBRANCH   7   8
ENDBRANCH   1   7
BRANCH   4  19
ATOM     19  N   UNL     1      24.870   4.554  50.470  1.00  0.00    -0.308 N 
ATOM     20  C   UNL     1      24.835   3.279  51.019  1.00  0.00     0.323 C 
ATOM     21  O   UNL     1      25.732   2.450  50.923  1.00  0.00    -0.248 OA
ATOM     22  N   UNL     1      23.641   3.074  51.700  1.00  0.00    -0.308 N 
ATOM     23  H   UNL     1      24.088   5.155  50.670  1.00  0.00     0.171 HD
ATOM     24  H   UNL     1      22.974   3.830  51.673  1.00  0.00     0.171 HD
BRANCH  22  25
ATOM     25  C   UNL     1      23.241   1.922  52.410  1.00  0.00     0.043 A 
ATOM     26  C   UNL     1      21.934   1.443  52.457  1.00  0.00     0.028 A 
ATOM     27  C   UNL     1      24.236   1.221  53.105  1.00  0.00     0.040 A 
ATOM     28  C   UNL     1      21.627   0.288  53.182  1.00  0.00     0.023 A 
ATOM     29  C   UNL     1      23.944   0.051  53.839  1.00  0.00     0.076 A 
ATOM     30  C   UNL     1      22.624  -0.407  53.868  1.00  0.00     0.053 A 
ATOM     31  Cl  UNL     1      22.162  -1.832  54.720  1.00  0.00    -0.084 Cl
BRANCH  29  32
ATOM     32  C   UNL     1      25.050  -0.690  54.541  1.00  0.00     0.417 C 
ATOM     33  F   UNL     1      26.003   0.145  55.052  1.00  0.00    -0.166 F 
ATOM     34  F   UNL     1      24.623  -1.433  55.599  1.00  0.00    -0.166 F 
ATOM     35  F   UNL     1      25.723  -1.538  53.713  1.00  0.00    -0.166 F 
ENDBRANCH  29  32
ENDBRANCH  22  25
ENDBRANCH   4  19
TORSDOF 6
ENDMDL
MODEL 7
REMARK VINA RESULT:    -8.704      5.644     10.333
REMARK INTER + INTRA:         -12.563
REMARK INTER:                 -12.316
REMARK INTRA:                  -0.247
REMARK UNBOUND:                -0.805
REMARK SMILES CNC(=O)c1cc(Oc2ccc(NC(=O)Nc3ccc(Cl)c(C(F)(F)F)c3)cc2)ccn1
REMARK SMILES IDX 9 1 10 2 11 3 12 4 28 5 29 6 8 7 7 8 5 9 6 10 32 11 31 12
REMARK SMILES IDX 30 13 3 14 2 15 4 16 1 17 13 19 14 20 15 21 16 22 17 25
REMARK SMILES IDX 18 26 27 27 19 28 22 29 20 30 21 31 23 32 24 33 25 34 26 35
REMARK H PARENT 2 18 13 23 16 24
ROOT
ATOM      1  C   UNL     1      23.017   2.430  51.771  1.00  0.00     0.127 A 
ATOM      2  C   UNL     1      23.285   3.585  52.501  1.00  0.00     0.049 A 
ATOM      3  C   UNL     1      24.141   4.551  51.970  1.00  0.00     0.030 A 
ATOM      4  C   UNL     1      24.744   4.366  50.716  1.00  0.00     0.043 A 
ATOM      5  C   UNL     1      24.487   3.184  50.012  1.00  0.00     0.030 A 
ATOM      6  C   UNL     1      23.631   2.214  50.541  1.00  0.00     0.049 A 
ENDROOT
BRANCH   1   7
ATOM      7  O   UNL     1      22.198   1.458  52.285  1.00  0.00    -0.457 OA
BRANCH   7   8
ATOM      8  C   UNL     1      22.737   0.570  53.192  1.00  0.00     0.131 A 
ATOM      9  C   UNL     1      24.719  -0.482  53.989  1.00  0.00     0.131 A 
ATOM     10  C   UNL     1      24.117   0.413  53.117  1.00  0.00     0.081 A 
ATOM     11  N   UNL     1      24.039  -1.218  54.915  1.00  0.00    -0.251 NA
ATOM     12  C   UNL     1      22.702  -1.045  54.951  1.00  0.00     0.116 A 
ATOM     13  C   UNL     1      22.012  -0.178  54.118  1.00  0.00     0.067 A 
BRANCH   9  14
ATOM     14  C   UNL     1      26.200  -0.701  53.926  1.00  0.00     0.269 C 
ATOM     15  N   UNL     1      26.940   0.228  54.627  1.00  0.00    -0.354 N 
ATOM     16  O   UNL     1      26.682  -1.645  53.312  1.00  0.00    -0.268 OA
ATOM     17  C   UNL     1      28.360   0.098  54.814  1.00  0.00     0.143 C 
ATOM     18  H   UNL     1      26.407   0.892  55.183  1.00  0.00     0.163 HD
ENDBRANCH   9  14
ENDBRANCH   7   8
ENDBRANCH   1   7
BRANCH   4  19
ATOM     19  N   UNL     1      25.586   5.398  50.249  1.00  0.00    -0.308 N 
ATOM     20  C   UNL     1      26.616   5.298  49.322  1.00  0.00     0.323 C 
ATOM     21  O   UNL     1      26.945   4.266  48.750  1.00  0.00    -0.248 OA
ATOM     22  N   UNL     1      27.217   6.535  49.127  1.00  0.00    -0.308 N 
ATOM     23  H   UNL     1      25.383   6.318  50.604  1.00  0.00     0.171 HD
ATOM     24  H   UNL     1      26.869   7.297  49.687  1.00  0.00     0.171 HD
BRANCH  22  25
ATOM     25  C   UNL     1      28.278   6.848  48.250  1.00  0.00     0.043 A 
ATOM     26  C   UNL     1      28.156   7.673  47.133  1.00  0.00     0.028 A 
ATOM     27  C   UNL     1      29.530   6.288  48.536  1.00  0.00     0.040 A 
ATOM     28  C   UNL     1      29.263   7.933  46.320  1.00  0.00     0.023 A 
ATOM     29  C   UNL     1      30.659   6.545  47.727  1.00  0.00     0.076 A 
ATOM     30  C   UNL     1      30.508   7.376  46.614  1.00  0.00     0.053 A 
ATOM     31  Cl  UNL     1      31.824   7.766  45.571  1.00  0.00    -0.084 Cl
BRANCH  29  32
ATOM     32  C   UNL     1      31.994   5.952  48.092  1.00  0.00     0.417 C 
ATOM     33  F   UNL     1      32.494   5.137  47.115  1.00  0.00    -0.166 F 
ATOM     34  F   UNL     1      32.964   6.882  48.310  1.00  0.00    -0.166 F 
ATOM     35  F   UNL     1      31.936   5.176  49.211  1.00  0.00    -0.166 F 
ENDBRANCH  29  32
ENDBRANCH  22  25
ENDBRANCH   4  19
TORSDOF 6
ENDMDL
MODEL 8
REMARK VINA RESULT:    -8.617      1.956      3.282
REMARK INTER + INTRA:         -12.445
REMARK INTER:                 -11.756
REMARK INTRA:                  -0.688
REMARK UNBOUND:                -0.805
REMARK SMILES CNC(=O)c1cc(Oc2ccc(NC(=O)Nc3ccc(Cl)c(C(F)(F)F)c3)cc2)ccn1
REMARK SMILES IDX 9 1 10 2 11 3 12 4 28 5 29 6 8 7 7 8 5 9 6 10 32 11 31 12
REMARK SMILES IDX 30 13 3 14 2 15 4 16 1 17 13 19 14 20 15 21 16 22 17 25
REMARK SMILES IDX 18 26 27 27 19 28 22 29 20 30 21 31 23 32 24 33 25 34 26 35
REMARK H PARENT 2 18 13 23 16 24
ROOT
ATOM      1  C   UNL     1      27.251   6.103  48.499  1.00  0.00     0.127 A 
ATOM      2  C   UNL     1      26.230   6.857  49.072  1.00  0.00     0.049 A 
ATOM      3  C   UNL     1      25.350   6.251  49.970  1.00  0.00     0.030 A 
ATOM      4  C   UNL     1      25.473   4.890  50.291  1.00  0.00     0.043 A 
ATOM      5  C   UNL     1      26.485   4.143  49.680  1.00  0.00     0.030 A 
ATOM      6  C   UNL     1      27.369   4.745  48.779  1.00  0.00     0.049 A 
ENDROOT
BRANCH   1   7
ATOM      7  O   UNL     1      28.111   6.672  47.596  1.00  0.00    -0.457 OA
BRANCH   7   8
ATOM      8  C   UNL     1      29.229   7.315  48.084  1.00  0.00     0.131 A 
ATOM      9  C   UNL     1      30.180   9.393  48.753  1.00  0.00     0.131 A 
ATOM     10  C   UNL     1      29.084   8.684  48.283  1.00  0.00     0.081 A 
ATOM     11  N   UNL     1      31.390   8.828  49.032  1.00  0.00    -0.251 NA
ATOM     12  C   UNL     1      31.494   7.501  48.817  1.00  0.00     0.116 A 
ATOM     13  C   UNL     1      30.458   6.711  48.346  1.00  0.00     0.067 A 
BRANCH   9  14
ATOM     14  C   UNL     1      30.076  10.873  48.960  1.00  0.00     0.269 C 
ATOM     15  N   UNL     1      28.841  11.403  48.650  1.00  0.00    -0.354 N 
ATOM     16  O   UNL     1      31.020  11.528  49.386  1.00  0.00    -0.268 OA
ATOM     17  C   UNL     1      28.501  12.773  48.927  1.00  0.00     0.143 C 
ATOM     18  H   UNL     1      28.116  10.731  48.414  1.00  0.00     0.163 HD
ENDBRANCH   9  14
ENDBRANCH   7   8
ENDBRANCH   1   7
BRANCH   4  19
ATOM     19  N   UNL     1      24.548   4.362  51.218  1.00  0.00    -0.308 N 
ATOM     20  C   UNL     1      23.611   3.360  51.002  1.00  0.00     0.323 C 
ATOM     21  O   UNL     1      23.454   2.764  49.944  1.00  0.00    -0.248 OA
ATOM     22  N   UNL     1      22.878   3.121  52.158  1.00  0.00    -0.308 N 
ATOM     23  H   UNL     1      24.609   4.732  52.152  1.00  0.00     0.171 HD
ATOM     24  H   UNL     1      23.088   3.707  52.951  1.00  0.00     0.171 HD
BRANCH  22  25
ATOM     25  C   UNL     1      21.856   2.167  52.348  1.00  0.00     0.043 A 
ATOM     26  C   UNL     1      20.559   2.296  51.855  1.00  0.00     0.028 A 
ATOM     27  C   UNL     1      22.182   1.017  53.079  1.00  0.00     0.040 A 
ATOM     28  C   UNL     1      19.609   1.298  52.087  1.00  0.00     0.023 A 
ATOM     29  C   UNL     1      21.235  -0.003  53.319  1.00  0.00     0.076 A 
ATOM     30  C   UNL     1      19.943   0.153  52.812  1.00  0.00     0.053 A 
ATOM     31  Cl  UNL     1      18.717  -1.038  53.033  1.00  0.00    -0.084 Cl
BRANCH  29  32
ATOM     32  C   UNL     1      21.639  -1.238  54.078  1.00  0.00     0.417 C 
ATOM     33  F   UNL     1      22.633  -0.999  54.985  1.00  0.00    -0.166 F 
ATOM     34  F   UNL     1      20.626  -1.792  54.799  1.00  0.00    -0.166 F 
ATOM     35  F   UNL     1      22.124  -2.220  53.267  1.00  0.00    -0.166 F 
ENDBRANCH  29  32
ENDBRANCH  22  25
ENDBRANCH   4  19
TORSDOF 6
ENDMDL
MODEL 9
REMARK VINA RESULT:    -8.610      1.512      2.002
REMARK INTER + INTRA:         -12.435
REMARK INTER:                 -12.206
REMARK INTRA:                  -0.229
REMARK UNBOUND:                -0.805
REMARK SMILES CNC(=O)c1cc(Oc2ccc(NC(=O)Nc3ccc(Cl)c(C(F)(F)F)c3)cc2)ccn1
REMARK SMILES IDX 9 1 10 2 11 3 12 4 28 5 29 6 8 7 7 8 5 9 6 10 32 11 31 12
REMARK SMILES IDX 30 13 3 14 2 15 4 16 1 17 13 19 14 20 15 21 16 22 17 25
REMARK SMILES IDX 18 26 27 27 19 28 22 29 20 30 21 31 23 32 24 33 25 34 26 35
REMARK H PARENT 2 18 13 23 16 24
ROOT
ATOM      1  C   UNL     1      27.876   6.332  48.240  1.00  0.00     0.127 A 
ATOM      2  C   UNL     1      26.842   7.102  48.767  1.00  0.00     0.049 A 
ATOM      3  C   UNL     1      25.893   6.502  49.598  1.00  0.00     0.030 A 
ATOM      4  C   UNL     1      25.963   5.133  49.897  1.00  0.00     0.043 A 
ATOM      5  C   UNL     1      26.991   4.371  49.332  1.00  0.00     0.030 A 
ATOM      6  C   UNL     1      27.942   4.967  48.499  1.00  0.00     0.049 A 
ENDROOT
BRANCH   1   7
ATOM      7  O   UNL     1      28.804   6.896  47.403  1.00  0.00    -0.457 OA
BRANCH   7   8
ATOM      8  C   UNL     1      30.071   7.121  47.898  1.00  0.00     0.131 A 
ATOM      9  C   UNL     1      32.348   6.428  47.890  1.00  0.00     0.131 A 
ATOM     10  C   UNL     1      31.056   6.266  47.415  1.00  0.00     0.081 A 
ATOM     11  N   UNL     1      32.712   7.375  48.802  1.00  0.00    -0.251 NA
ATOM     12  C   UNL     1      31.728   8.178  49.254  1.00  0.00     0.116 A 
ATOM     13  C   UNL     1      30.408   8.091  48.842  1.00  0.00     0.067 A 
BRANCH   9  14
ATOM     14  C   UNL     1      33.436   5.514  47.415  1.00  0.00     0.269 C 
ATOM     15  N   UNL     1      33.775   4.522  48.312  1.00  0.00    -0.354 N 
ATOM     16  O   UNL     1      33.950   5.648  46.311  1.00  0.00    -0.268 OA
ATOM     17  C   UNL     1      34.684   3.460  47.977  1.00  0.00     0.143 C 
ATOM     18  H   UNL     1      33.193   4.459  49.143  1.00  0.00     0.163 HD
ENDBRANCH   9  14
ENDBRANCH   7   8
ENDBRANCH   1   7
BRANCH   4  19
ATOM     19  N   UNL     1      24.970   4.612  50.755  1.00  0.00    -0.308 N 
ATOM     20  C   UNL     1      24.703   3.276  51.029  1.00  0.00     0.323 C 
ATOM     21  O   UNL     1      25.316   2.328  50.556  1.00  0.00    -0.248 OA
ATOM     22  N   UNL     1      23.644   3.165  51.921  1.00  0.00    -0.308 N 
ATOM     23  H   UNL     1      24.425   5.295  51.254  1.00  0.00     0.171 HD
ATOM     24  H   UNL     1      23.205   4.027  52.207  1.00  0.00     0.171 HD
BRANCH  22  25
ATOM     25  C   UNL     1      23.092   1.982  52.459  1.00  0.00     0.043 A 
ATOM     26  C   UNL     1      23.807   1.055  53.214  1.00  0.00     0.028 A 
ATOM     27  C   UNL     1      21.734   1.741  52.213  1.00  0.00     0.040 A 
ATOM     28  C   UNL     1      23.178  -0.089  53.713  1.00  0.00     0.023 A 
ATOM     29  C   UNL     1      21.082   0.592  52.713  1.00  0.00     0.076 A 
ATOM     30  C   UNL     1      21.823  -0.320  53.467  1.00  0.00     0.053 A 
ATOM     31  Cl  UNL     1      21.123  -1.746  54.137  1.00  0.00    -0.084 Cl
BRANCH  29  32
ATOM     32  C   UNL     1      19.613   0.390  52.455  1.00  0.00     0.417 C 
ATOM     33  F   UNL     1      18.986  -0.280  53.467  1.00  0.00    -0.166 F 
ATOM     34  F   UNL     1      18.918   1.553  52.314  1.00  0.00    -0.166 F 
ATOM     35  F   UNL     1      19.373  -0.348  51.334  1.00  0.00    -0.166 F 
ENDBRANCH  29  32
ENDBRANCH  22  25
ENDBRANCH   4  19
TORSDOF 6
ENDMDL
MODEL 10
REMARK VINA RESULT:    -8.541      5.997     10.660
REMARK INTER + INTRA:         -12.342
REMARK INTER:                 -11.787
REMARK INTRA:                  -0.554
REMARK UNBOUND:                -0.805
REMARK SMILES CNC(=O)c1cc(Oc2ccc(NC(=O)Nc3ccc(Cl)c(C(F)(F)F)c3)cc2)ccn1
REMARK SMILES IDX 9 1 10 2 11 3 12 4 28 5 29 6 8 7 7 8 5 9 6 10 32 11 31 12
REMARK SMILES IDX 30 13 3 14 2 15 4 16 1 17 13 19 14 20 15 21 16 22 17 25
REMARK SMILES IDX 18 26 27 27 19 28 22 29 20 30 21 31 23 32 24 33 25 34 26 35
REMARK H PARENT 2 18 13 23 16 24
ROOT
ATOM      1  C   UNL     1      22.292   2.217  51.129  1.00  0.00     0.127 A 
ATOM      2  C   UNL     1      22.703   2.089  49.805  1.00  0.00     0.049 A 
ATOM      3  C   UNL     1      23.582   3.030  49.264  1.00  0.00     0.030 A 
ATOM      4  C   UNL     1      24.045   4.107  50.035  1.00  0.00     0.043 A 
ATOM      5  C   UNL     1      23.595   4.235  51.353  1.00  0.00     0.030 A 
ATOM      6  C   UNL     1      22.714   3.296  51.898  1.00  0.00     0.049 A 
ENDROOT
BRANCH   1   7
ATOM      7  O   UNL     1      21.410   1.318  51.672  1.00  0.00    -0.457 OA
BRANCH   7   8
ATOM      8  C   UNL     1      21.839   0.551  52.734  1.00  0.00     0.131 A 
ATOM      9  C   UNL     1      23.707  -0.434  53.833  1.00  0.00     0.131 A 
ATOM     10  C   UNL     1      23.214   0.347  52.799  1.00  0.00     0.081 A 
ATOM     11  N   UNL     1      22.926  -1.013  54.791  1.00  0.00    -0.251 NA
ATOM     12  C   UNL     1      21.599  -0.800  54.688  1.00  0.00     0.116 A 
ATOM     13  C   UNL     1      21.013  -0.039  53.690  1.00  0.00     0.067 A 
BRANCH   9  14
ATOM     14  C   UNL     1      25.179  -0.701  53.928  1.00  0.00     0.269 C 
ATOM     15  N   UNL     1      25.870  -0.484  52.755  1.00  0.00    -0.354 N 
ATOM     16  O   UNL     1      25.698  -1.062  54.977  1.00  0.00    -0.268 OA
ATOM     17  C   UNL     1      27.306  -0.536  52.688  1.00  0.00     0.143 C 
ATOM     18  H   UNL     1      25.334  -0.079  51.992  1.00  0.00     0.163 HD
ENDBRANCH   9  14
ENDBRANCH   7   8
ENDBRANCH   1   7
BRANCH   4  19
ATOM     19  N   UNL     1      24.941   5.004  49.413  1.00  0.00    -0.308 N 
ATOM     20  C   UNL     1      26.329   4.941  49.398  1.00  0.00     0.323 C 
ATOM     21  O   UNL     1      26.996   4.065  49.934  1.00  0.00    -0.248 OA
ATOM     22  N   UNL     1      26.856   6.010  48.685  1.00  0.00    -0.308 N 
ATOM     23  H   UNL     1      24.515   5.748  48.886  1.00  0.00     0.171 HD
ATOM     24  H   UNL     1      26.194   6.679  48.323  1.00  0.00     0.171 HD
BRANCH  22  25
ATOM     25  C   UNL     1      28.216   6.284  48.424  1.00  0.00     0.043 A 
ATOM     26  C   UNL     1      29.156   5.321  48.064  1.00  0.00     0.028 A 
ATOM     27  C   UNL     1      28.633   7.618  48.537  1.00  0.00     0.040 A 
ATOM     28  C   UNL     1      30.484   5.683  47.819  1.00  0.00     0.023 A 
ATOM     29  C   UNL     1      29.969   8.000  48.289  1.00  0.00     0.076 A 
ATOM     30  C   UNL     1      30.890   7.014  47.928  1.00  0.00     0.053 A 
ATOM     31  Cl  UNL     1      32.541   7.375  47.589  1.00  0.00    -0.084 Cl
BRANCH  29  32
ATOM     32  C   UNL     1      30.365   9.449  48.386  1.00  0.00     0.417 C 
ATOM     33  F   UNL     1      30.842   9.946  47.206  1.00  0.00    -0.166 F 
ATOM     34  F   UNL     1      29.339  10.274  48.731  1.00  0.00    -0.166 F 
ATOM     35  F   UNL     1      31.361   9.662  49.292  1.00  0.00    -0.166 F 
ENDBRANCH  29  32
ENDBRANCH  22  25
ENDBRANCH   4  19
TORSDOF 6
ENDMDL
MODEL 11
REMARK VINA RESULT:    -8.488      6.470     11.162
REMARK INTER + INTRA:         -12.270
REMARK INTER:                 -11.224
REMARK INTRA:                  -1.046
REMARK UNBOUND:                -0.805
REMARK SMILES CNC(=O)c1cc(Oc2ccc(NC(=O)Nc3ccc(Cl)c(C(F)(F)F)c3)cc2)ccn1
REMARK SMILES IDX 9 1 10 2 11 3 12 4 28 5 29 6 8 7 7 8 5 9 6 10 32 11 31 12
REMARK SMILES IDX 30 13 3 14 2 15 4 16 1 17 13 19 14 20 15 21 16 22 17 25
REMARK SMILES IDX 18 26 27 27 19 28 22 29 20 30 21 31 23 32 24 33 25 34 26 35
REMARK H PARENT 2 18 13 23 16 24
ROOT
ATOM      1  C   UNL     1      23.093   2.370  50.380  1.00  0.00     0.127 A 
ATOM      2  C   UNL     1      22.434   3.587  50.531  1.00  0.00     0.049 A 
ATOM      3  C   UNL     1      23.179   4.756  50.699  1.00  0.00     0.030 A 
ATOM      4  C   UNL     1      24.582   4.716  50.730  1.00  0.00     0.043 A 
ATOM      5  C   UNL     1      25.224   3.479  50.609  1.00  0.00     0.030 A 
ATOM      6  C   UNL     1      24.481   2.306  50.441  1.00  0.00     0.049 A 
ENDROOT
BRANCH   1   7
ATOM      7  O   UNL     1      22.380   1.208  50.238  1.00  0.00    -0.457 OA
BRANCH   7   8
ATOM      8  C   UNL     1      21.690   0.733  51.333  1.00  0.00     0.131 A 
ATOM      9  C   UNL     1      21.841  -0.357  53.444  1.00  0.00     0.131 A 
ATOM     10  C   UNL     1      22.477   0.158  52.325  1.00  0.00     0.081 A 
ATOM     11  N   UNL     1      20.490  -0.333  53.632  1.00  0.00    -0.251 NA
ATOM     12  C   UNL     1      19.760   0.225  52.645  1.00  0.00     0.116 A 
ATOM     13  C   UNL     1      20.304   0.761  51.489  1.00  0.00     0.067 A 
BRANCH   9  14
ATOM     14  C   UNL     1      22.648  -1.009  54.526  1.00  0.00     0.269 C 
ATOM     15  N   UNL     1      24.000  -0.744  54.462  1.00  0.00    -0.354 N 
ATOM     16  O   UNL     1      22.121  -1.698  55.391  1.00  0.00    -0.268 OA
ATOM     17  C   UNL     1      24.913  -1.150  55.495  1.00  0.00     0.143 C 
ATOM     18  H   UNL     1      24.286  -0.067  53.759  1.00  0.00     0.163 HD
ENDBRANCH   9  14
ENDBRANCH   7   8
ENDBRANCH   1   7
BRANCH   4  19
ATOM     19  N   UNL     1      25.256   5.946  50.892  1.00  0.00    -0.308 N 
ATOM     20  C   UNL     1      25.713   6.799  49.895  1.00  0.00     0.323 C 
ATOM     21  O   UNL     1      25.585   6.604  48.694  1.00  0.00    -0.248 OA
ATOM     22  N   UNL     1      26.333   7.911  50.453  1.00  0.00    -0.308 N 
ATOM     23  H   UNL     1      25.379   6.252  51.843  1.00  0.00     0.171 HD
ATOM     24  H   UNL     1      26.399   7.930  51.459  1.00  0.00     0.171 HD
BRANCH  22  25
ATOM     25  C   UNL     1      26.902   9.010  49.775  1.00  0.00     0.043 A 
ATOM     26  C   UNL     1      26.165  10.000  49.127  1.00  0.00     0.028 A 
ATOM     27  C   UNL     1      28.300   9.100  49.764  1.00  0.00     0.040 A 
ATOM     28  C   UNL     1      26.813  11.058  48.483  1.00  0.00     0.023 A 
ATOM     29  C   UNL     1      28.969  10.165  49.121  1.00  0.00     0.076 A 
ATOM     30  C   UNL     1      28.205  11.144  48.480  1.00  0.00     0.053 A 
ATOM     31  Cl  UNL     1      28.921  12.492  47.680  1.00  0.00    -0.084 Cl
BRANCH  29  32
ATOM     32  C   UNL     1      30.472  10.242  49.165  1.00  0.00     0.417 C 
ATOM     33  F   UNL     1      30.924  11.405  49.722  1.00  0.00    -0.166 F 
ATOM     34  F   UNL     1      31.049   9.249  49.895  1.00  0.00    -0.166 F 
ATOM     35  F   UNL     1      31.037  10.196  47.925  1.00  0.00    -0.166 F 
ENDBRANCH  29  32
ENDBRANCH  22  25
ENDBRANCH   4  19
TORSDOF 6
ENDMDL
MODEL 12
REMARK VINA RESULT:    -8.469      4.964      6.303
REMARK INTER + INTRA:         -12.245
REMARK INTER:                 -11.501
REMARK INTRA:                  -0.745
REMARK UNBOUND:                -0.805
REMARK SMILES CNC(=O)c1cc(Oc2ccc(NC(=O)Nc3ccc(Cl)c(C(F)(F)F)c3)cc2)ccn1
REMARK SMILES IDX 9 1 10 2 11 3 12 4 28 5 29 6 8 7 7 8 5 9 6 10 32 11 31 12
REMARK SMILES IDX 30 13 3 14 2 15 4 16 1 17 13 19 14 20 15 21 16 22 17 25
REMARK SMILES IDX 18 26 27 27 19 28 22 29 20 30 21 31 23 32 24 33 25 34 26 35
REMARK H PARENT 2 18 13 23 16 24
ROOT
ATOM      1  C   UNL     1      25.802   8.000  47.450  1.00  0.00     0.127 A 
ATOM      2  C   UNL     1      24.639   7.711  48.159  1.00  0.00     0.049 A 
ATOM      3  C   UNL     1      24.657   6.709  49.131  1.00  0.00     0.030 A 
ATOM      4  C   UNL     1      25.829   5.982  49.392  1.00  0.00     0.043 A 
ATOM      5  C   UNL     1      26.978   6.266  48.647  1.00  0.00     0.030 A 
ATOM      6  C   UNL     1      26.964   7.268  47.672  1.00  0.00     0.049 A 
ENDROOT
BRANCH   1   7
ATOM      7  O   UNL     1      25.799   8.964  46.475  1.00  0.00    -0.457 OA
BRANCH   7   8
ATOM      8  C   UNL     1      25.859  10.284  46.869  1.00  0.00     0.131 A 
ATOM      9  C   UNL     1      27.132  11.958  47.983  1.00  0.00     0.131 A 
ATOM     10  C   UNL     1      27.020  10.648  47.542  1.00  0.00     0.081 A 
ATOM     11  N   UNL     1      26.173  12.910  47.796  1.00  0.00    -0.251 NA
ATOM     12  C   UNL     1      25.059  12.516  47.148  1.00  0.00     0.116 A 
ATOM     13  C   UNL     1      24.853  11.230  46.675  1.00  0.00     0.067 A 
BRANCH   9  14
ATOM     14  C   UNL     1      28.355  12.389  48.734  1.00  0.00     0.269 C 
ATOM     15  N   UNL     1      29.503  11.708  48.386  1.00  0.00    -0.354 N 
ATOM     16  O   UNL     1      28.312  13.285  49.569  1.00  0.00    -0.268 OA
ATOM     17  C   UNL     1      30.800  12.083  48.882  1.00  0.00     0.143 C 
ATOM     18  H   UNL     1      29.418  11.068  47.601  1.00  0.00     0.163 HD
ENDBRANCH   9  14
ENDBRANCH   7   8
ENDBRANCH   1   7
BRANCH   4  19
ATOM     19  N   UNL     1      25.761   4.995  50.399  1.00  0.00    -0.308 N 
ATOM     20  C   UNL     1      26.348   3.736  50.392  1.00  0.00     0.323 C 
ATOM     21  O   UNL     1      27.038   3.290  49.485  1.00  0.00    -0.248 OA
ATOM     22  N   UNL     1      26.047   3.052  51.564  1.00  0.00    -0.308 N 
ATOM     23  H   UNL     1      25.263   5.258  51.233  1.00  0.00     0.171 HD
ATOM     24  H   UNL     1      25.440   3.524  52.216  1.00  0.00     0.171 HD
BRANCH  22  25
ATOM     25  C   UNL     1      26.476   1.762  51.942  1.00  0.00     0.043 A 
ATOM     26  C   UNL     1      25.843   0.581  51.560  1.00  0.00     0.028 A 
ATOM     27  C   UNL     1      27.615   1.678  52.753  1.00  0.00     0.040 A 
ATOM     28  C   UNL     1      26.339  -0.657  51.978  1.00  0.00     0.023 A 
ATOM     29  C   UNL     1      28.132   0.435  53.180  1.00  0.00     0.076 A 
ATOM     30  C   UNL     1      27.478  -0.732  52.781  1.00  0.00     0.053 A 
ATOM     31  Cl  UNL     1      28.033  -2.300  53.233  1.00  0.00    -0.084 Cl
BRANCH  29  32
ATOM     32  C   UNL     1      29.380   0.390  54.020  1.00  0.00     0.417 C 
ATOM     33  F   UNL     1      29.228  -0.361  55.152  1.00  0.00    -0.166 F 
ATOM     34  F   UNL     1      30.452  -0.148  53.378  1.00  0.00    -0.166 F 
ATOM     35  F   UNL     1      29.763   1.623  54.458  1.00  0.00    -0.166 F 
ENDBRANCH  29  32
ENDBRANCH  22  25
ENDBRANCH   4  19
TORSDOF 6
ENDMDL
MODEL 13
REMARK VINA RESULT:    -8.358      6.771     11.575
REMARK INTER + INTRA:         -12.095
REMARK INTER:                 -11.267
REMARK INTRA:                  -0.827
REMARK UNBOUND:                -0.805
REMARK SMILES CNC(=O)c1cc(Oc2ccc(NC(=O)Nc3ccc(Cl)c(C(F)(F)F)c3)cc2)ccn1
REMARK SMILES IDX 9 1 10 2 11 3 12 4 28 5 29 6 8 7 7 8 5 9 6 10 32 11 31 12
REMARK SMILES IDX 30 13 3 14 2 15 4 16 1 17 13 19 14 20 15 21 16 22 17 25
REMARK SMILES IDX 18 26 27 27 19 28 22 29 20 30 21 31 23 32 24 33 25 34 26 35
REMARK H PARENT 2 18 13 23 16 24
ROOT
ATOM      1  C   UNL     1      23.546   2.994  50.718  1.00  0.00     0.127 A 
ATOM      2  C   UNL     1      23.074   4.004  51.553  1.00  0.00     0.049 A 
ATOM      3  C   UNL     1      23.731   5.236  51.580  1.00  0.00     0.030 A 
ATOM      4  C   UNL     1      24.866   5.463  50.786  1.00  0.00     0.043 A 
ATOM      5  C   UNL     1      25.342   4.426  49.978  1.00  0.00     0.030 A 
ATOM      6  C   UNL     1      24.688   3.190  49.949  1.00  0.00     0.049 A 
ENDROOT
BRANCH   1   7
ATOM      7  O   UNL     1      22.930   1.769  50.694  1.00  0.00    -0.457 OA
BRANCH   7   8
ATOM      8  C   UNL     1      23.070   0.953  51.797  1.00  0.00     0.131 A 
ATOM      9  C   UNL     1      21.966  -0.462  53.360  1.00  0.00     0.131 A 
ATOM     10  C   UNL     1      21.896   0.355  52.242  1.00  0.00     0.081 A 
ATOM     11  N   UNL     1      23.116  -0.715  54.049  1.00  0.00    -0.251 NA
ATOM     12  C   UNL     1      24.231  -0.110  53.593  1.00  0.00     0.116 A 
ATOM     13  C   UNL     1      24.260   0.726  52.488  1.00  0.00     0.067 A 
BRANCH   9  14
ATOM     14  C   UNL     1      20.721  -1.108  53.890  1.00  0.00     0.269 C 
ATOM     15  N   UNL     1      19.560  -0.686  53.278  1.00  0.00    -0.354 N 
ATOM     16  O   UNL     1      20.765  -1.949  54.779  1.00  0.00    -0.268 OA
ATOM     17  C   UNL     1      18.286  -1.299  53.540  1.00  0.00     0.143 C 
ATOM     18  H   UNL     1      19.678  -0.067  52.480  1.00  0.00     0.163 HD
ENDBRANCH   9  14
ENDBRANCH   7   8
ENDBRANCH   1   7
BRANCH   4  19
ATOM     19  N   UNL     1      25.460   6.741  50.867  1.00  0.00    -0.308 N 
ATOM     20  C   UNL     1      25.974   7.504  49.825  1.00  0.00     0.323 C 
ATOM     21  O   UNL     1      25.979   7.168  48.648  1.00  0.00    -0.248 OA
ATOM     22  N   UNL     1      26.480   8.706  50.305  1.00  0.00    -0.308 N 
ATOM     23  H   UNL     1      25.470   7.159  51.782  1.00  0.00     0.171 HD
ATOM     24  H   UNL     1      26.443   8.841  51.304  1.00  0.00     0.171 HD
BRANCH  22  25
ATOM     25  C   UNL     1      27.061   9.754  49.560  1.00  0.00     0.043 A 
ATOM     26  C   UNL     1      26.340  10.668  48.796  1.00  0.00     0.028 A 
ATOM     27  C   UNL     1      28.457   9.873  49.606  1.00  0.00     0.040 A 
ATOM     28  C   UNL     1      26.998  11.680  48.091  1.00  0.00     0.023 A 
ATOM     29  C   UNL     1      29.137  10.892  48.904  1.00  0.00     0.076 A 
ATOM     30  C   UNL     1      28.388  11.795  48.145  1.00  0.00     0.053 A 
ATOM     31  Cl  UNL     1      29.117  13.084  47.264  1.00  0.00    -0.084 Cl
BRANCH  29  32
ATOM     32  C   UNL     1      30.634  11.005  49.009  1.00  0.00     0.417 C 
ATOM     33  F   UNL     1      31.183  10.028  49.792  1.00  0.00    -0.166 F 
ATOM     34  F   UNL     1      31.276  10.904  47.813  1.00  0.00    -0.166 F 
ATOM     35  F   UNL     1      31.035  12.180  49.571  1.00  0.00    -0.166 F 
ENDBRANCH  29  32
ENDBRANCH  22  25
ENDBRANCH   4  19
TORSDOF 6
ENDMDL
MODEL 14
REMARK VINA RESULT:    -8.251      6.240      9.804
REMARK INTER + INTRA:         -11.950
REMARK INTER:                 -11.335
REMARK INTRA:                  -0.615
REMARK UNBOUND:                -0.805
REMARK SMILES CNC(=O)c1cc(Oc2ccc(NC(=O)Nc3ccc(Cl)c(C(F)(F)F)c3)cc2)ccn1
REMARK SMILES IDX 9 1 10 2 11 3 12 4 28 5 29 6 8 7 7 8 5 9 6 10 32 11 31 12
REMARK SMILES IDX 30 13 3 14 2 15 4 16 1 17 13 19 14 20 15 21 16 22 17 25
REMARK SMILES IDX 18 26 27 27 19 28 22 29 20 30 21 31 23 32 24 33 25 34 26 35
REMARK H PARENT 2 18 13 23 16 24
ROOT
ATOM      1  C   UNL     1      22.582   1.276  51.795  1.00  0.00     0.127 A 
ATOM      2  C   UNL     1      22.986   2.416  52.485  1.00  0.00     0.049 A 
ATOM      3  C   UNL     1      23.198   3.605  51.783  1.00  0.00     0.030 A 
ATOM      4  C   UNL     1      23.019   3.659  50.392  1.00  0.00     0.043 A 
ATOM      5  C   UNL     1      22.644   2.495  49.714  1.00  0.00     0.030 A 
ATOM      6  C   UNL     1      22.432   1.303  50.413  1.00  0.00     0.049 A 
ENDROOT
BRANCH   1   7
ATOM      7  O   UNL     1      22.392   0.093  52.462  1.00  0.00    -0.457 OA
BRANCH   7   8
ATOM      8  C   UNL     1      23.350  -0.297  53.374  1.00  0.00     0.131 A 
ATOM      9  C   UNL     1      25.675  -0.405  53.875  1.00  0.00     0.131 A 
ATOM     10  C   UNL     1      24.663  -0.020  53.008  1.00  0.00     0.081 A 
ATOM     11  N   UNL     1      25.460  -1.040  55.063  1.00  0.00    -0.251 NA
ATOM     12  C   UNL     1      24.176  -1.300  55.378  1.00  0.00     0.116 A 
ATOM     13  C   UNL     1      23.098  -0.958  54.576  1.00  0.00     0.067 A 
BRANCH   9  14
ATOM     14  C   UNL     1      27.106  -0.148  53.510  1.00  0.00     0.269 C 
ATOM     15  N   UNL     1      27.988  -1.104  53.968  1.00  0.00    -0.354 N 
ATOM     16  O   UNL     1      27.431   0.827  52.844  1.00  0.00    -0.268 OA
ATOM     17  C   UNL     1      29.375  -1.114  53.590  1.00  0.00     0.143 C 
ATOM     18  H   UNL     1      27.570  -1.917  54.412  1.00  0.00     0.163 HD
ENDBRANCH   9  14
ENDBRANCH   7   8
ENDBRANCH   1   7
BRANCH   4  19
ATOM     19  N   UNL     1      23.243   4.904  49.765  1.00  0.00    -0.308 N 
ATOM     20  C   UNL     1      24.452   5.424  49.321  1.00  0.00     0.323 C 
ATOM     21  O   UNL     1      25.533   4.855  49.405  1.00  0.00    -0.248 OA
ATOM     22  N   UNL     1      24.264   6.682  48.761  1.00  0.00    -0.308 N 
ATOM     23  H   UNL     1      22.420   5.455  49.585  1.00  0.00     0.171 HD
ATOM     24  H   UNL     1      23.326   7.049  48.785  1.00  0.00     0.171 HD
BRANCH  22  25
ATOM     25  C   UNL     1      25.240   7.520  48.178  1.00  0.00     0.043 A 
ATOM     26  C   UNL     1      25.336   7.783  46.814  1.00  0.00     0.028 A 
ATOM     27  C   UNL     1      26.164   8.122  49.043  1.00  0.00     0.040 A 
ATOM     28  C   UNL     1      26.333   8.631  46.323  1.00  0.00     0.023 A 
ATOM     29  C   UNL     1      27.175   8.984  48.564  1.00  0.00     0.076 A 
ATOM     30  C   UNL     1      27.247   9.231  47.191  1.00  0.00     0.053 A 
ATOM     31  Cl  UNL     1      28.431  10.278  46.505  1.00  0.00    -0.084 Cl
BRANCH  29  32
ATOM     32  C   UNL     1      28.124   9.637  49.533  1.00  0.00     0.417 C 
ATOM     33  F   UNL     1      27.783   9.416  50.837  1.00  0.00    -0.166 F 
ATOM     34  F   UNL     1      29.408   9.197  49.421  1.00  0.00    -0.166 F 
ATOM     35  F   UNL     1      28.162  10.993  49.398  1.00  0.00    -0.166 F 
ENDBRANCH  29  32
ENDBRANCH  22  25
ENDBRANCH   4  19
TORSDOF 6
ENDMDL
MODEL 15
REMARK VINA RESULT:    -8.223      3.204      4.667
REMARK INTER + INTRA:         -11.912
REMARK INTER:                 -10.890
REMARK INTRA:                  -1.023
REMARK UNBOUND:                -0.805
REMARK SMILES CNC(=O)c1cc(Oc2ccc(NC(=O)Nc3ccc(Cl)c(C(F)(F)F)c3)cc2)ccn1
REMARK SMILES IDX 9 1 10 2 11 3 12 4 28 5 29 6 8 7 7 8 5 9 6 10 32 11 31 12
REMARK SMILES IDX 30 13 3 14 2 15 4 16 1 17 13 19 14 20 15 21 16 22 17 25
REMARK SMILES IDX 18 26 27 27 19 28 22 29 20 30 21 31 23 32 24 33 25 34 26 35
REMARK H PARENT 2 18 13 23 16 24
ROOT
ATOM      1  C   UNL     1      27.760   7.629  46.919  1.00  0.00     0.127 A 
ATOM      2  C   UNL     1      28.425   6.659  47.665  1.00  0.00     0.049 A 
ATOM      3  C   UNL     1      27.771   6.050  48.738  1.00  0.00     0.030 A 
ATOM      4  C   UNL     1      26.459   6.412  49.079  1.00  0.00     0.043 A 
ATOM      5  C   UNL     1      25.820   7.411  48.337  1.00  0.00     0.030 A 
ATOM      6  C   UNL     1      26.472   8.025  47.263  1.00  0.00     0.049 A 
ENDROOT
BRANCH   1   7
ATOM      7  O   UNL     1      28.392   8.257  45.877  1.00  0.00    -0.457 OA
BRANCH   7   8
ATOM      8  C   UNL     1      29.504   9.023  46.161  1.00  0.00     0.131 A 
ATOM      9  C   UNL     1      30.312  11.100  46.998  1.00  0.00     0.131 A 
ATOM     10  C   UNL     1      29.236  10.273  46.709  1.00  0.00     0.081 A 
ATOM     11  N   UNL     1      31.615  10.761  46.778  1.00  0.00    -0.251 NA
ATOM     12  C   UNL     1      31.833   9.545  46.237  1.00  0.00     0.116 A 
ATOM     13  C   UNL     1      30.824   8.652  45.910  1.00  0.00     0.067 A 
BRANCH   9  14
ATOM     14  C   UNL     1      30.069  12.465  47.567  1.00  0.00     0.269 C 
ATOM     15  N   UNL     1      29.698  13.410  46.634  1.00  0.00    -0.354 N 
ATOM     16  O   UNL     1      30.181  12.687  48.767  1.00  0.00    -0.268 OA
ATOM     17  C   UNL     1      29.274  14.733  47.006  1.00  0.00     0.143 C 
ATOM     18  H   UNL     1      29.535  13.063  45.693  1.00  0.00     0.163 HD
ENDBRANCH   9  14
ENDBRANCH   7   8
ENDBRANCH   1   7
BRANCH   4  19
ATOM     19  N   UNL     1      25.869   5.736  50.170  1.00  0.00    -0.308 N 
ATOM     20  C   UNL     1      25.366   4.442  50.193  1.00  0.00     0.323 C 
ATOM     21  O   UNL     1      25.368   3.672  49.241  1.00  0.00    -0.248 OA
ATOM     22  N   UNL     1      24.862   4.138  51.452  1.00  0.00    -0.308 N 
ATOM     23  H   UNL     1      25.854   6.244  51.039  1.00  0.00     0.171 HD
ATOM     24  H   UNL     1      24.892   4.876  52.138  1.00  0.00     0.171 HD
BRANCH  22  25
ATOM     25  C   UNL     1      24.290   2.920  51.880  1.00  0.00     0.043 A 
ATOM     26  C   UNL     1      22.940   2.600  51.756  1.00  0.00     0.028 A 
ATOM     27  C   UNL     1      25.150   1.980  52.462  1.00  0.00     0.040 A 
ATOM     28  C   UNL     1      22.459   1.367  52.203  1.00  0.00     0.023 A 
ATOM     29  C   UNL     1      24.682   0.727  52.916  1.00  0.00     0.076 A 
ATOM     30  C   UNL     1      23.323   0.433  52.778  1.00  0.00     0.053 A 
ATOM     31  Cl  UNL     1      22.650  -1.071  53.284  1.00  0.00    -0.084 Cl
BRANCH  29  32
ATOM     32  C   UNL     1      25.647  -0.267  53.502  1.00  0.00     0.417 C 
ATOM     33  F   UNL     1      25.720  -1.423  52.777  1.00  0.00    -0.166 F 
ATOM     34  F   UNL     1      26.927   0.190  53.573  1.00  0.00    -0.166 F 
ATOM     35  F   UNL     1      25.300  -0.657  54.761  1.00  0.00    -0.166 F 
ENDBRANCH  29  32
ENDBRANCH  22  25
ENDBRANCH   4  19
TORSDOF 6
ENDMDL
MODEL 16
REMARK VINA RESULT:    -8.220      6.498     10.836
REMARK INTER + INTRA:         -11.908
REMARK INTER:                 -11.270
REMARK INTRA:                  -0.639
REMARK UNBOUND:                -0.805
REMARK SMILES CNC(=O)c1cc(Oc2ccc(NC(=O)Nc3ccc(Cl)c(C(F)(F)F)c3)cc2)ccn1
REMARK SMILES IDX 9 1 10 2 11 3 12 4 28 5 29 6 8 7 7 8 5 9 6 10 32 11 31 12
REMARK SMILES IDX 30 13 3 14 2 15 4 16 1 17 13 19 14 20 15 21 16 22 17 25
REMARK SMILES IDX 18 26 27 27 19 28 22 29 20 30 21 31 23 32 24 33 25 34 26 35
REMARK H PARENT 2 18 13 23 16 24
ROOT
ATOM      1  C   UNL     1      22.624   2.561  51.653  1.00  0.00     0.127 A 
ATOM      2  C   UNL     1      23.332   2.254  50.494  1.00  0.00     0.049 A 
ATOM      3  C   UNL     1      24.376   3.087  50.086  1.00  0.00     0.030 A 
ATOM      4  C   UNL     1      24.710   4.234  50.823  1.00  0.00     0.043 A 
ATOM      5  C   UNL     1      23.966   4.541  51.967  1.00  0.00     0.030 A 
ATOM      6  C   UNL     1      22.919   3.710  52.378  1.00  0.00     0.049 A 
ENDROOT
BRANCH   1   7
ATOM      7  O   UNL     1      21.580   1.769  52.058  1.00  0.00    -0.457 OA
BRANCH   7   8
ATOM      8  C   UNL     1      21.846   0.752  52.950  1.00  0.00     0.131 A 
ATOM      9  C   UNL     1      23.530  -0.540  54.029  1.00  0.00     0.131 A 
ATOM     10  C   UNL     1      23.196   0.486  53.157  1.00  0.00     0.081 A 
ATOM     11  N   UNL     1      22.615  -1.303  54.695  1.00  0.00    -0.251 NA
ATOM     12  C   UNL     1      21.318  -1.020  54.460  1.00  0.00     0.116 A 
ATOM     13  C   UNL     1      20.887  -0.019  53.605  1.00  0.00     0.067 A 
BRANCH   9  14
ATOM     14  C   UNL     1      24.970  -0.878  54.263  1.00  0.00     0.269 C 
ATOM     15  N   UNL     1      25.752  -0.846  53.128  1.00  0.00    -0.354 N 
ATOM     16  O   UNL     1      25.393  -1.139  55.383  1.00  0.00    -0.268 OA
ATOM     17  C   UNL     1      27.182  -0.989  53.174  1.00  0.00     0.143 C 
ATOM     18  H   UNL     1      25.296  -0.506  52.285  1.00  0.00     0.163 HD
ENDBRANCH   9  14
ENDBRANCH   7   8
ENDBRANCH   1   7
BRANCH   4  19
ATOM     19  N   UNL     1      25.787   5.013  50.346  1.00  0.00    -0.308 N 
ATOM     20  C   UNL     1      25.736   6.297  49.819  1.00  0.00     0.323 C 
ATOM     21  O   UNL     1      24.716   6.963  49.696  1.00  0.00    -0.248 OA
ATOM     22  N   UNL     1      27.006   6.725  49.454  1.00  0.00    -0.308 N 
ATOM     23  H   UNL     1      26.699   4.598  50.440  1.00  0.00     0.171 HD
ATOM     24  H   UNL     1      27.756   6.062  49.578  1.00  0.00     0.171 HD
BRANCH  22  25
ATOM     25  C   UNL     1      27.370   7.974  48.907  1.00  0.00     0.043 A 
ATOM     26  C   UNL     1      27.564   9.133  49.656  1.00  0.00     0.028 A 
ATOM     27  C   UNL     1      27.549   8.036  47.518  1.00  0.00     0.040 A 
ATOM     28  C   UNL     1      27.929  10.328  49.030  1.00  0.00     0.023 A 
ATOM     29  C   UNL     1      27.922   9.235  46.872  1.00  0.00     0.076 A 
ATOM     30  C   UNL     1      28.110  10.381  47.648  1.00  0.00     0.053 A 
ATOM     31  Cl  UNL     1      28.580  11.891  46.961  1.00  0.00    -0.084 Cl
BRANCH  29  32
ATOM     32  C   UNL     1      28.139   9.248  45.382  1.00  0.00     0.417 C 
ATOM     33  F   UNL     1      29.378   9.706  45.033  1.00  0.00    -0.166 F 
ATOM     34  F   UNL     1      28.037   8.020  44.804  1.00  0.00    -0.166 F 
ATOM     35  F   UNL     1      27.260  10.062  44.731  1.00  0.00    -0.166 F 
ENDBRANCH  29  32
ENDBRANCH  22  25
ENDBRANCH   4  19
TORSDOF 6
ENDMDL
MODEL 17
REMARK VINA RESULT:    -8.158      6.084     11.209
REMARK INTER + INTRA:         -11.824
REMARK INTER:                 -11.013
REMARK INTRA:                  -0.811
REMARK UNBOUND:                -0.805
REMARK SMILES CNC(=O)c1cc(Oc2ccc(NC(=O)Nc3ccc(Cl)c(C(F)(F)F)c3)cc2)ccn1
REMARK SMILES IDX 9 1 10 2 11 3 12 4 28 5 29 6 8 7 7 8 5 9 6 10 32 11 31 12
REMARK SMILES IDX 30 13 3 14 2 15 4 16 1 17 13 19 14 20 15 21 16 22 17 25
REMARK SMILES IDX 18 26 27 27 19 28 22 29 20 30 21 31 23 32 24 33 25 34 26 35
REMARK H PARENT 2 18 13 23 16 24
ROOT
ATOM      1  C   UNL     1      23.994   3.804  49.130  1.00  0.00     0.127 A 
ATOM      2  C   UNL     1      25.291   3.474  49.517  1.00  0.00     0.049 A 
ATOM      3  C   UNL     1      26.245   4.484  49.654  1.00  0.00     0.030 A 
ATOM      4  C   UNL     1      25.917   5.823  49.394  1.00  0.00     0.043 A 
ATOM      5  C   UNL     1      24.618   6.129  48.975  1.00  0.00     0.030 A 
ATOM      6  C   UNL     1      23.659   5.121  48.836  1.00  0.00     0.049 A 
ENDROOT
BRANCH   1   7
ATOM      7  O   UNL     1      23.048   2.825  48.966  1.00  0.00    -0.457 OA
BRANCH   7   8
ATOM      8  C   UNL     1      22.369   2.388  50.084  1.00  0.00     0.131 A 
ATOM      9  C   UNL     1      22.449   1.038  52.043  1.00  0.00     0.131 A 
ATOM     10  C   UNL     1      23.084   1.529  50.912  1.00  0.00     0.081 A 
ATOM     11  N   UNL     1      21.166   1.346  52.392  1.00  0.00    -0.251 NA
ATOM     12  C   UNL     1      20.503   2.173  51.559  1.00  0.00     0.116 A 
ATOM     13  C   UNL     1      21.051   2.711  50.405  1.00  0.00     0.067 A 
BRANCH   9  14
ATOM     14  C   UNL     1      23.172   0.090  52.951  1.00  0.00     0.269 C 
ATOM     15  N   UNL     1      24.546   0.212  52.918  1.00  0.00    -0.354 N 
ATOM     16  O   UNL     1      22.568  -0.702  53.663  1.00  0.00    -0.268 OA
ATOM     17  C   UNL     1      25.402  -0.500  53.828  1.00  0.00     0.143 C 
ATOM     18  H   UNL     1      24.909   0.984  52.366  1.00  0.00     0.163 HD
ENDBRANCH   9  14
ENDBRANCH   7   8
ENDBRANCH   1   7
BRANCH   4  19
ATOM     19  N   UNL     1      26.939   6.781  49.569  1.00  0.00    -0.308 N 
ATOM     20  C   UNL     1      28.020   7.029  48.731  1.00  0.00     0.323 C 
ATOM     21  O   UNL     1      28.242   6.440  47.681  1.00  0.00    -0.248 OA
ATOM     22  N   UNL     1      28.812   8.047  49.248  1.00  0.00    -0.308 N 
ATOM     23  H   UNL     1      26.845   7.376  50.375  1.00  0.00     0.171 HD
ATOM     24  H   UNL     1      28.532   8.425  50.140  1.00  0.00     0.171 HD
BRANCH  22  25
ATOM     25  C   UNL     1      29.979   8.602  48.681  1.00  0.00     0.043 A 
ATOM     26  C   UNL     1      30.040   9.857  48.079  1.00  0.00     0.028 A 
ATOM     27  C   UNL     1      31.147   7.829  48.737  1.00  0.00     0.040 A 
ATOM     28  C   UNL     1      31.242  10.331  47.546  1.00  0.00     0.023 A 
ATOM     29  C   UNL     1      32.370   8.295  48.207  1.00  0.00     0.076 A 
ATOM     30  C   UNL     1      32.402   9.557  47.611  1.00  0.00     0.053 A 
ATOM     31  Cl  UNL     1      33.845  10.226  46.947  1.00  0.00    -0.084 Cl
BRANCH  29  32
ATOM     32  C   UNL     1      33.608   7.446  48.322  1.00  0.00     0.417 C 
ATOM     33  F   UNL     1      34.628   8.086  48.969  1.00  0.00    -0.166 F 
ATOM     34  F   UNL     1      33.417   6.290  49.014  1.00  0.00    -0.166 F 
ATOM     35  F   UNL     1      34.120   7.096  47.108  1.00  0.00    -0.166 F 
ENDBRANCH  29  32
ENDBRANCH  22  25
ENDBRANCH   4  19
TORSDOF 6
ENDMDL
MODEL 18
REMARK VINA RESULT:    -8.156      3.637      5.258
REMARK INTER + INTRA:         -11.822
REMARK INTER:                 -10.933
REMARK INTRA:                  -0.889
REMARK UNBOUND:                -0.805
REMARK SMILES CNC(=O)c1cc(Oc2ccc(NC(=O)Nc3ccc(Cl)c(C(F)(F)F)c3)cc2)ccn1
REMARK SMILES IDX 9 1 10 2 11 3 12 4 28 5 29 6 8 7 7 8 5 9 6 10 32 11 31 12
REMARK SMILES IDX 30 13 3 14 2 15 4 16 1 17 13 19 14 20 15 21 16 22 17 25
REMARK SMILES IDX 18 26 27 27 19 28 22 29 20 30 21 31 23 32 24 33 25 34 26 35
REMARK H PARENT 2 18 13 23 16 24
ROOT
ATOM      1  C   UNL     1      27.509   6.963  48.784  1.00  0.00     0.127 A 
ATOM      2  C   UNL     1      26.299   7.152  49.448  1.00  0.00     0.049 A 
ATOM      3  C   UNL     1      25.526   6.043  49.798  1.00  0.00     0.030 A 
ATOM      4  C   UNL     1      25.949   4.743  49.478  1.00  0.00     0.043 A 
ATOM      5  C   UNL     1      27.151   4.577  48.783  1.00  0.00     0.030 A 
ATOM      6  C   UNL     1      27.927   5.685  48.430  1.00  0.00     0.049 A 
ENDROOT
BRANCH   1   7
ATOM      7  O   UNL     1      28.270   8.040  48.410  1.00  0.00    -0.457 OA
BRANCH   7   8
ATOM      8  C   UNL     1      27.690   8.993  47.601  1.00  0.00     0.131 A 
ATOM      9  C   UNL     1      27.185  11.302  47.316  1.00  0.00     0.131 A 
ATOM     10  C   UNL     1      27.767  10.298  48.075  1.00  0.00     0.081 A 
ATOM     11  N   UNL     1      26.541  11.087  46.133  1.00  0.00    -0.251 NA
ATOM     12  C   UNL     1      26.479   9.808  45.711  1.00  0.00     0.116 A 
ATOM     13  C   UNL     1      27.027   8.738  46.401  1.00  0.00     0.067 A 
BRANCH   9  14
ATOM     14  C   UNL     1      27.222  12.720  47.802  1.00  0.00     0.269 C 
ATOM     15  N   UNL     1      26.714  13.638  46.908  1.00  0.00    -0.354 N 
ATOM     16  O   UNL     1      27.657  13.005  48.911  1.00  0.00    -0.268 OA
ATOM     17  C   UNL     1      26.523  15.021  47.251  1.00  0.00     0.143 C 
ATOM     18  H   UNL     1      26.285  13.252  46.071  1.00  0.00     0.163 HD
ENDBRANCH   9  14
ENDBRANCH   7   8
ENDBRANCH   1   7
BRANCH   4  19
ATOM     19  N   UNL     1      25.112   3.679  49.880  1.00  0.00    -0.308 N 
ATOM     20  C   UNL     1      25.157   2.971  51.075  1.00  0.00     0.323 C 
ATOM     21  O   UNL     1      25.950   3.181  51.984  1.00  0.00    -0.248 OA
ATOM     22  N   UNL     1      24.171   1.992  51.097  1.00  0.00    -0.308 N 
ATOM     23  H   UNL     1      24.374   3.440  49.239  1.00  0.00     0.171 HD
ATOM     24  H   UNL     1      23.606   1.904  50.267  1.00  0.00     0.171 HD
BRANCH  22  25
ATOM     25  C   UNL     1      23.880   1.087  52.141  1.00  0.00     0.043 A 
ATOM     26  C   UNL     1      24.830   0.290  52.777  1.00  0.00     0.028 A 
ATOM     27  C   UNL     1      22.545   0.998  52.556  1.00  0.00     0.040 A 
ATOM     28  C   UNL     1      24.453  -0.576  53.807  1.00  0.00     0.023 A 
ATOM     29  C   UNL     1      22.148   0.131  53.597  1.00  0.00     0.076 A 
ATOM     30  C   UNL     1      23.122  -0.656  54.218  1.00  0.00     0.053 A 
ATOM     31  Cl  UNL     1      22.748  -1.736  55.509  1.00  0.00    -0.084 Cl
BRANCH  29  32
ATOM     32  C   UNL     1      20.709   0.094  54.036  1.00  0.00     0.417 C 
ATOM     33  F   UNL     1      19.894   0.847  53.238  1.00  0.00    -0.166 F 
ATOM     34  F   UNL     1      20.165  -1.154  54.021  1.00  0.00    -0.166 F 
ATOM     35  F   UNL     1      20.530   0.584  55.294  1.00  0.00    -0.166 F 
ENDBRANCH  29  32
ENDBRANCH  22  25
ENDBRANCH   4  19
TORSDOF 6
ENDMDL
MODEL 19
REMARK VINA RESULT:    -8.153      2.041      2.381
REMARK INTER + INTRA:         -11.819
REMARK INTER:                 -11.407
REMARK INTRA:                  -0.412
REMARK UNBOUND:                -0.805
REMARK SMILES CNC(=O)c1cc(Oc2ccc(NC(=O)Nc3ccc(Cl)c(C(F)(F)F)c3)cc2)ccn1
REMARK SMILES IDX 9 1 10 2 11 3 12 4 28 5 29 6 8 7 7 8 5 9 6 10 32 11 31 12
REMARK SMILES IDX 30 13 3 14 2 15 4 16 1 17 13 19 14 20 15 21 16 22 17 25
REMARK SMILES IDX 18 26 27 27 19 28 22 29 20 30 21 31 23 32 24 33 25 34 26 35
REMARK H PARENT 2 18 13 23 16 24
ROOT
ATOM      1  C   UNL     1      27.703   7.785  48.494  1.00  0.00     0.127 A 
ATOM      2  C   UNL     1      26.958   8.375  49.512  1.00  0.00     0.049 A 
ATOM      3  C   UNL     1      26.032   7.606  50.220  1.00  0.00     0.030 A 
ATOM      4  C   UNL     1      25.836   6.251  49.910  1.00  0.00     0.043 A 
ATOM      5  C   UNL     1      26.572   5.686  48.863  1.00  0.00     0.030 A 
ATOM      6  C   UNL     1      27.499   6.452  48.151  1.00  0.00     0.049 A 
ENDROOT
BRANCH   1   7
ATOM      7  O   UNL     1      28.600   8.528  47.771  1.00  0.00    -0.457 OA
BRANCH   7   8
ATOM      8  C   UNL     1      29.944   8.277  47.952  1.00  0.00     0.131 A 
ATOM      9  C   UNL     1      31.912   7.298  47.037  1.00  0.00     0.131 A 
ATOM     10  C   UNL     1      30.564   7.599  46.907  1.00  0.00     0.081 A 
ATOM     11  N   UNL     1      32.665   7.627  48.126  1.00  0.00    -0.251 NA
ATOM     12  C   UNL     1      32.026   8.274  49.121  1.00  0.00     0.116 A 
ATOM     13  C   UNL     1      30.683   8.614  49.085  1.00  0.00     0.067 A 
BRANCH   9  14
ATOM     14  C   UNL     1      32.615   6.548  45.947  1.00  0.00     0.269 C 
ATOM     15  N   UNL     1      32.229   6.906  44.672  1.00  0.00    -0.354 N 
ATOM     16  O   UNL     1      33.470   5.707  46.198  1.00  0.00    -0.268 OA
ATOM     17  C   UNL     1      32.897   6.410  43.499  1.00  0.00     0.143 C 
ATOM     18  H   UNL     1      31.592   7.695  44.607  1.00  0.00     0.163 HD
ENDBRANCH   9  14
ENDBRANCH   7   8
ENDBRANCH   1   7
BRANCH   4  19
ATOM     19  N   UNL     1      24.889   5.545  50.684  1.00  0.00    -0.308 N 
ATOM     20  C   UNL     1      24.811   4.172  50.882  1.00  0.00     0.323 C 
ATOM     21  O   UNL     1      25.583   3.351  50.405  1.00  0.00    -0.248 OA
ATOM     22  N   UNL     1      23.735   3.861  51.705  1.00  0.00    -0.308 N 
ATOM     23  H   UNL     1      24.222   6.114  51.179  1.00  0.00     0.171 HD
ATOM     24  H   UNL     1      23.158   4.632  52.002  1.00  0.00     0.171 HD
BRANCH  22  25
ATOM     25  C   UNL     1      23.339   2.583  52.157  1.00  0.00     0.043 A 
ATOM     26  C   UNL     1      22.067   2.045  51.975  1.00  0.00     0.028 A 
ATOM     27  C   UNL     1      24.301   1.816  52.828  1.00  0.00     0.040 A 
ATOM     28  C   UNL     1      21.762   0.768  52.452  1.00  0.00     0.023 A 
ATOM     29  C   UNL     1      24.010   0.522  53.313  1.00  0.00     0.076 A 
ATOM     30  C   UNL     1      22.726   0.008  53.115  1.00  0.00     0.053 A 
ATOM     31  Cl  UNL     1      22.272  -1.566  53.654  1.00  0.00    -0.084 Cl
BRANCH  29  32
ATOM     32  C   UNL     1      25.084  -0.281  53.997  1.00  0.00     0.417 C 
ATOM     33  F   UNL     1      24.655  -0.849  55.164  1.00  0.00    -0.166 F 
ATOM     34  F   UNL     1      25.552  -1.317  53.248  1.00  0.00    -0.166 F 
ATOM     35  F   UNL     1      26.165   0.473  54.342  1.00  0.00    -0.166 F 
ENDBRANCH  29  32
ENDBRANCH  22  25
ENDBRANCH   4  19
TORSDOF 6
ENDMDL
MODEL 20
REMARK VINA RESULT:    -8.125      6.340     10.813
REMARK INTER + INTRA:         -11.780
REMARK INTER:                 -11.084
REMARK INTRA:                  -0.695
REMARK UNBOUND:                -0.805
REMARK SMILES CNC(=O)c1cc(Oc2ccc(NC(=O)Nc3ccc(Cl)c(C(F)(F)F)c3)cc2)ccn1
REMARK SMILES IDX 9 1 10 2 11 3 12 4 28 5 29 6 8 7 7 8 5 9 6 10 32 11 31 12
REMARK SMILES IDX 30 13 3 14 2 15 4 16 1 17 13 19 14 20 15 21 16 22 17 25
REMARK SMILES IDX 18 26 27 27 19 28 22 29 20 30 21 31 23 32 24 33 25 34 26 35
REMARK H PARENT 2 18 13 23 16 24
ROOT
ATOM      1  C   UNL     1      22.706   2.540  51.485  1.00  0.00     0.127 A 
ATOM      2  C   UNL     1      23.650   2.278  50.496  1.00  0.00     0.049 A 
ATOM      3  C   UNL     1      24.626   3.234  50.206  1.00  0.00     0.030 A 
ATOM      4  C   UNL     1      24.659   4.458  50.892  1.00  0.00     0.043 A 
ATOM      5  C   UNL     1      23.682   4.714  51.860  1.00  0.00     0.030 A 
ATOM      6  C   UNL     1      22.702   3.761  52.152  1.00  0.00     0.049 A 
ENDROOT
BRANCH   1   7
ATOM      7  O   UNL     1      21.724   1.626  51.768  1.00  0.00    -0.457 OA
BRANCH   7   8
ATOM      8  C   UNL     1      21.966   0.703  52.764  1.00  0.00     0.131 A 
ATOM      9  C   UNL     1      23.619  -0.498  53.986  1.00  0.00     0.131 A 
ATOM     10  C   UNL     1      23.309   0.437  53.010  1.00  0.00     0.081 A 
ATOM     11  N   UNL     1      22.686  -1.172  54.720  1.00  0.00    -0.251 NA
ATOM     12  C   UNL     1      21.396  -0.894  54.446  1.00  0.00     0.116 A 
ATOM     13  C   UNL     1      20.988   0.020  53.487  1.00  0.00     0.067 A 
BRANCH   9  14
ATOM     14  C   UNL     1      25.052  -0.834  54.267  1.00  0.00     0.269 C 
ATOM     15  N   UNL     1      25.888  -0.705  53.178  1.00  0.00    -0.354 N 
ATOM     16  O   UNL     1      25.422  -1.174  55.384  1.00  0.00    -0.268 OA
ATOM     17  C   UNL     1      27.316  -0.833  53.287  1.00  0.00     0.143 C 
ATOM     18  H   UNL     1      25.469  -0.308  52.342  1.00  0.00     0.163 HD
ENDBRANCH   9  14
ENDBRANCH   7   8
ENDBRANCH   1   7
BRANCH   4  19
ATOM     19  N   UNL     1      25.687   5.361  50.545  1.00  0.00    -0.308 N 
ATOM     20  C   UNL     1      25.812   6.091  49.370  1.00  0.00     0.323 C 
ATOM     21  O   UNL     1      25.017   6.062  48.439  1.00  0.00    -0.248 OA
ATOM     22  N   UNL     1      26.965   6.867  49.399  1.00  0.00    -0.308 N 
ATOM     23  H   UNL     1      26.384   5.519  51.253  1.00  0.00     0.171 HD
ATOM     24  H   UNL     1      27.550   6.771  50.215  1.00  0.00     0.171 HD
BRANCH  22  25
ATOM     25  C   UNL     1      27.427   7.760  48.409  1.00  0.00     0.043 A 
ATOM     26  C   UNL     1      28.288   7.406  47.372  1.00  0.00     0.028 A 
ATOM     27  C   UNL     1      26.979   9.085  48.484  1.00  0.00     0.040 A 
ATOM     28  C   UNL     1      28.693   8.356  46.431  1.00  0.00     0.023 A 
ATOM     29  C   UNL     1      27.375  10.057  47.538  1.00  0.00     0.076 A 
ATOM     30  C   UNL     1      28.238   9.673  46.509  1.00  0.00     0.053 A 
ATOM     31  Cl  UNL     1      28.770  10.775  45.295  1.00  0.00    -0.084 Cl
BRANCH  29  32
ATOM     32  C   UNL     1      26.841  11.461  47.636  1.00  0.00     0.417 C 
ATOM     33  F   UNL     1      25.972  11.623  48.678  1.00  0.00    -0.166 F 
ATOM     34  F   UNL     1      27.807  12.400  47.828  1.00  0.00    -0.166 F 
ATOM     35  F   UNL     1      26.143  11.836  46.527  1.00  0.00    -0.166 F 
ENDBRANCH  29  32
ENDBRANCH  22  25
ENDBRANCH   4  19
TORSDOF 6
ENDMDL
