REMARK SMILES O=C(NOC[C@H](O)CO)c1ccc(F)c(F)c1Nc1ccc(I)cc1F
REMARK SMILES IDX 4 1 3 2 1 3 2 4 10 6 11 7 17 8 12 9 15 10 13 11 16 12 14 13
REMARK SMILES IDX 18 14 19 16 20 17 25 18 21 19 24 20 22 21 26 22 23 23 5 24
REMARK SMILES IDX 6 25 7 26 8 28 9 29
REMARK H PARENT 3 5 18 15 7 27 9 30
ROOT
ATOM      1  O   UNL     1      -2.730  -1.100  -1.136  1.00  0.00    -0.271 OA
ENDROOT
BRANCH   1   2
ATOM      2  N   UNL     1      -1.643  -1.758  -0.503  1.00  0.00    -0.231 N 
ATOM      3  O   UNL     1      -0.961   0.320   0.237  1.00  0.00    -0.267 OA
ATOM      4  C   UNL     1      -0.740  -0.877   0.064  1.00  0.00     0.277 C 
ATOM      5  H   UNL     1      -1.287  -2.556  -1.020  1.00  0.00     0.199 HD
BRANCH   4   6
ATOM      6  C   UNL     1       0.572  -1.458   0.469  1.00  0.00     0.068 A 
ATOM      7  C   UNL     1       0.604  -2.773   0.977  1.00  0.00     0.019 A 
ATOM      8  C   UNL     1       1.751  -0.672   0.388  1.00  0.00     0.091 A 
ATOM      9  C   UNL     1       1.808  -3.330   1.397  1.00  0.00     0.043 A 
ATOM     10  C   UNL     1       2.945  -1.270   0.825  1.00  0.00     0.183 A 
ATOM     11  C   UNL     1       2.969  -2.573   1.318  1.00  0.00     0.161 A 
ATOM     12  F   UNL     1       4.097  -0.581   0.837  1.00  0.00    -0.201 F 
ATOM     13  F   UNL     1       4.121  -3.105   1.745  1.00  0.00    -0.204 F 
BRANCH   8  14
ATOM     14  N   UNL     1       1.691   0.625  -0.170  1.00  0.00    -0.350 N 
ATOM     15  H   UNL     1       0.787   1.089  -0.007  1.00  0.00     0.167 HD
BRANCH  14  16
ATOM     16  C   UNL     1       2.628   1.471  -0.789  1.00  0.00     0.075 A 
ATOM     17  C   UNL     1       3.790   1.013  -1.415  1.00  0.00     0.030 A 
ATOM     18  C   UNL     1       2.409   2.860  -0.768  1.00  0.00     0.147 A 
ATOM     19  C   UNL     1       4.701   1.910  -1.990  1.00  0.00     0.017 A 
ATOM     20  C   UNL     1       3.302   3.764  -1.338  1.00  0.00     0.056 A 
ATOM     21  C   UNL     1       4.453   3.282  -1.946  1.00  0.00     0.016 A 
ATOM     22  F   UNL     1       1.304   3.339  -0.175  1.00  0.00    -0.205 F 
ATOM     23  I   UNL     1       5.809   4.605  -2.796  1.00  0.00    -0.044 I 
ENDBRANCH  14  16
ENDBRANCH   8  14
ENDBRANCH   4   6
ENDBRANCH   1   2
BRANCH   1  24
ATOM     24  C   UNL     1      -3.890  -1.175  -0.290  1.00  0.00     0.227 C 
BRANCH  24  25
ATOM     25  C   UNL     1      -4.422   0.248  -0.074  1.00  0.00     0.168 C 
BRANCH  25  26
ATOM     26  O   UNL     1      -3.567   0.961   0.835  1.00  0.00    -0.388 OA
ATOM     27  H   UNL     1      -2.649   0.882   0.484  1.00  0.00     0.211 HD
ENDBRANCH  25  26
BRANCH  25  28
ATOM     28  C   UNL     1      -5.820   0.233   0.545  1.00  0.00     0.190 C 
BRANCH  28  29
ATOM     29  O   UNL     1      -5.771  -0.363   1.842  1.00  0.00    -0.394 OA
ATOM     30  H   UNL     1      -5.045   0.111   2.299  1.00  0.00     0.210 HD
ENDBRANCH  28  29
ENDBRANCH  25  28
ENDBRANCH  24  25
ENDBRANCH   1  24
TORSDOF 9
