REMARK SMILES COc1cc(F)c(F)c(Nc2ccc(I)cc2F)c1NS(=O)(=O)C1(C[C@H](O)CO)CC1
REMARK SMILES IDX 21 1 22 2 23 3 20 4 19 6 3 7 4 8 5 9 9 10 7 11 6 12 8 13
REMARK SMILES IDX 2 14 1 15 10 16 11 18 12 19 17 20 13 21 16 22 14 23 18 24
REMARK SMILES IDX 15 25 24 26 30 27 31 28 25 29 26 30 27 31 28 33 29 34
REMARK H PARENT 20 5 10 17 27 32 29 35
ROOT
ATOM      1  S   UNL     1       1.155   0.694  -1.565  1.00  0.00     0.238 S 
ATOM      2  O   UNL     1       1.132   0.628  -3.013  1.00  0.00    -0.206 OA
ATOM      3  O   UNL     1       0.825   1.940  -0.902  1.00  0.00    -0.206 OA
ENDROOT
BRANCH   1   4
ATOM      4  N   UNL     1       0.115  -0.505  -0.940  1.00  0.00    -0.277 N 
ATOM      5  H   UNL     1       0.209  -0.472   0.091  1.00  0.00     0.180 HD
BRANCH   4   6
ATOM      6  C   UNL     1      -1.264  -0.334  -1.333  1.00  0.00     0.117 A 
ATOM      7  C   UNL     1      -1.717  -0.826  -2.573  1.00  0.00     0.148 A 
ATOM      8  C   UNL     1      -3.026  -0.570  -2.987  1.00  0.00     0.091 A 
ATOM      9  C   UNL     1      -3.860   0.195  -2.178  1.00  0.00     0.164 A 
ATOM     10  C   UNL     1      -2.115   0.431  -0.511  1.00  0.00     0.106 A 
ATOM     11  C   UNL     1      -3.416   0.692  -0.957  1.00  0.00     0.184 A 
ATOM     12  F   UNL     1      -5.117   0.437  -2.580  1.00  0.00    -0.204 F 
ATOM     13  F   UNL     1      -4.245   1.424  -0.197  1.00  0.00    -0.201 F 
BRANCH   7  14
ATOM     14  O   UNL     1      -0.863  -1.628  -3.289  1.00  0.00    -0.494 OA
ATOM     15  C   UNL     1      -0.852  -1.374  -4.693  1.00  0.00     0.278 C 
ENDBRANCH   7  14
BRANCH  10  16
ATOM     16  N   UNL     1      -1.642   0.929   0.733  1.00  0.00    -0.349 N 
ATOM     17  H   UNL     1      -1.710   1.951   0.739  1.00  0.00     0.167 HD
BRANCH  16  18
ATOM     18  C   UNL     1      -2.055   0.440   2.002  1.00  0.00     0.075 A 
ATOM     19  C   UNL     1      -2.451  -0.889   2.196  1.00  0.00     0.030 A 
ATOM     20  C   UNL     1      -1.931   1.261   3.135  1.00  0.00     0.147 A 
ATOM     21  C   UNL     1      -2.769  -1.359   3.478  1.00  0.00     0.017 A 
ATOM     22  C   UNL     1      -2.247   0.809   4.413  1.00  0.00     0.056 A 
ATOM     23  C   UNL     1      -2.669  -0.507   4.579  1.00  0.00     0.016 A 
ATOM     24  F   UNL     1      -1.506   2.526   2.986  1.00  0.00    -0.205 F 
ATOM     25  I   UNL     1      -3.133  -1.212   6.477  1.00  0.00    -0.044 I 
ENDBRANCH  16  18
ENDBRANCH  10  16
ENDBRANCH   4   6
ENDBRANCH   1   4
BRANCH   1  26
ATOM     26  C   UNL     1       2.851   0.235  -1.030  1.00  0.00     0.094 C 
ATOM     27  C   UNL     1       3.695  -0.371  -2.142  1.00  0.00     0.027 C 
ATOM     28  C   UNL     1       3.151  -1.251  -1.057  1.00  0.00     0.027 C 
BRANCH  26  29
ATOM     29  C   UNL     1       3.485   1.207  -0.075  1.00  0.00     0.059 C 
BRANCH  29  30
ATOM     30  C   UNL     1       3.309   0.937   1.430  1.00  0.00     0.141 C 
BRANCH  30  31
ATOM     31  O   UNL     1       4.058  -0.232   1.799  1.00  0.00    -0.391 OA
ATOM     32  H   UNL     1       4.162  -0.210   2.769  1.00  0.00     0.211 HD
ENDBRANCH  30  31
BRANCH  30  33
ATOM     33  C   UNL     1       1.874   0.766   1.934  1.00  0.00     0.187 C 
BRANCH  33  34
ATOM     34  O   UNL     1       1.329  -0.472   1.473  1.00  0.00    -0.394 OA
ATOM     35  H   UNL     1       2.043  -1.132   1.600  1.00  0.00     0.210 HD
ENDBRANCH  33  34
ENDBRANCH  30  33
ENDBRANCH  29  30
ENDBRANCH  26  29
ENDBRANCH   1  26
TORSDOF 11
