REMARK SMILES Cn1cnc2c(F)c(Nc3ccc(Br)cc3Cl)c(C(=O)NOCCO)cc21
REMARK SMILES IDX 19 1 20 2 21 3 18 5 2 6 3 7 27 8 4 9 26 10 5 11 6 12 8 13
REMARK SMILES IDX 1 14 7 15 9 16 10 18 11 19 16 20 12 21 15 22 13 23 17 24
REMARK SMILES IDX 14 25 22 26 23 27 24 28 25 29
REMARK H PARENT 21 4 9 17 25 30
ROOT
ATOM      1  C   UNL     1      -1.481  -0.080   0.319  1.00  0.00     0.277 C 
ATOM      2  O   UNL     1      -1.581  -0.707   1.369  1.00  0.00    -0.267 OA
ATOM      3  N   UNL     1      -2.401  -0.109  -0.714  1.00  0.00    -0.231 N 
ATOM      4  H   UNL     1      -2.063   0.053  -1.657  1.00  0.00     0.199 HD
ENDROOT
BRANCH   1   5
ATOM      5  C   UNL     1      -0.281   0.773   0.079  1.00  0.00     0.070 A 
ATOM      6  N   UNL     1       0.868   4.028  -1.364  1.00  0.00    -0.334 N 
ATOM      7  C   UNL     1       2.199   4.321  -1.298  1.00  0.00     0.200 A 
ATOM      8  C   UNL     1       0.670   2.797  -0.786  1.00  0.00     0.072 A 
ATOM      9  N   UNL     1       2.873   3.362  -0.709  1.00  0.00    -0.234 NA
ATOM     10  C   UNL     1      -0.467   2.012  -0.573  1.00  0.00     0.045 A 
ATOM     11  C   UNL     1       1.941   2.404  -0.375  1.00  0.00     0.126 A 
ATOM     12  C   UNL     1       2.097   1.171   0.289  1.00  0.00     0.175 A 
ATOM     13  C   UNL     1       0.990   0.333   0.530  1.00  0.00     0.090 A 
ATOM     14  C   UNL     1      -0.147   4.876  -1.939  1.00  0.00     0.151 C 
ATOM     15  F   UNL     1       3.318   0.832   0.734  1.00  0.00    -0.202 F 
BRANCH  13  16
ATOM     16  N   UNL     1       1.110  -0.941   1.138  1.00  0.00    -0.351 N 
ATOM     17  H   UNL     1       0.267  -1.216   1.661  1.00  0.00     0.167 HD
BRANCH  16  18
ATOM     18  C   UNL     1       2.149  -1.888   1.231  1.00  0.00     0.057 A 
ATOM     19  C   UNL     1       3.212  -1.926   0.319  1.00  0.00     0.029 A 
ATOM     20  C   UNL     1       2.158  -2.830   2.283  1.00  0.00     0.065 A 
ATOM     21  C   UNL     1       4.244  -2.863   0.447  1.00  0.00     0.018 A 
ATOM     22  C   UNL     1       3.184  -3.769   2.417  1.00  0.00     0.038 A 
ATOM     23  C   UNL     1       4.225  -3.778   1.495  1.00  0.00     0.019 A 
ATOM     24  Cl  UNL     1       0.882  -2.857   3.454  1.00  0.00    -0.082 Cl
ATOM     25  Br  UNL     1       5.619  -5.044   1.661  1.00  0.00    -0.051 Br
ENDBRANCH  16  18
ENDBRANCH  13  16
ENDBRANCH   1   5
BRANCH   3  26
ATOM     26  O   UNL     1      -3.318  -1.188  -0.614  1.00  0.00    -0.271 OA
BRANCH  26  27
ATOM     27  C   UNL     1      -4.560  -0.683  -0.104  1.00  0.00     0.222 C 
BRANCH  27  28
ATOM     28  C   UNL     1      -5.510  -1.859   0.082  1.00  0.00     0.187 C 
BRANCH  28  29
ATOM     29  O   UNL     1      -5.812  -2.453  -1.181  1.00  0.00    -0.394 OA
ATOM     30  H   UNL     1      -4.954  -2.722  -1.559  1.00  0.00     0.210 HD
ENDBRANCH  28  29
ENDBRANCH  27  28
ENDBRANCH  26  27
ENDBRANCH   3  26
TORSDOF 7
