REMARK SMILES CC(=O)Nc1cccc(-n2c(=O)n(C3CC3)c(=O)c3c(Nc4ccc(I)cc4F)n(C)c(=O)c(C)c32)c1
REMARK SMILES IDX 10 1 11 2 12 3 13 4 17 5 18 6 19 7 20 8 30 9 31 10 32 11
REMARK SMILES IDX 33 12 34 13 35 14 36 15 9 16 5 17 6 18 37 19 7 20 8 21 4 22
REMARK SMILES IDX 2 23 3 24 1 25 14 27 15 28 16 29 21 30 22 32 23 33 28 34
REMARK SMILES IDX 24 35 27 36 25 37 29 38 26 39
REMARK H PARENT 4 26 21 31
ROOT
ATOM      1  N   UNL     1       0.945  -0.914   1.155  1.00  0.00    -0.261 N 
ATOM      2  C   UNL     1       0.180  -2.060   1.474  1.00  0.00     0.336 C 
ATOM      3  O   UNL     1       0.603  -3.217   1.373  1.00  0.00    -0.247 OA
ATOM      4  N   UNL     1      -1.126  -1.827   1.904  1.00  0.00    -0.256 N 
ATOM      5  C   UNL     1      -1.874  -0.741   1.470  1.00  0.00     0.268 C 
ATOM      6  O   UNL     1      -3.104  -0.738   1.531  1.00  0.00    -0.268 OA
ATOM      7  C   UNL     1      -1.074   0.433   0.993  1.00  0.00     0.106 C 
ATOM      8  C   UNL     1      -1.680   1.551   0.511  1.00  0.00     0.128 C 
ATOM      9  N   UNL     1      -0.905   2.714   0.416  1.00  0.00    -0.297 N 
ATOM     10  C   UNL     1      -1.481   3.942  -0.117  1.00  0.00     0.155 C 
ATOM     11  C   UNL     1       0.381   2.806   0.936  1.00  0.00     0.256 C 
ATOM     12  O   UNL     1       0.978   3.872   1.078  1.00  0.00    -0.269 OA
ATOM     13  C   UNL     1       1.064   1.521   1.278  1.00  0.00     0.040 C 
ATOM     14  C   UNL     1       2.488   1.698   1.730  1.00  0.00     0.053 C 
ATOM     15  C   UNL     1       0.369   0.369   1.150  1.00  0.00     0.076 C 
ENDROOT
BRANCH   1  16
ATOM     16  C   UNL     1       2.264  -1.164   0.604  1.00  0.00     0.053 A 
ATOM     17  C   UNL     1       3.965  -0.707  -1.094  1.00  0.00     0.043 A 
ATOM     18  C   UNL     1       4.818  -1.621  -0.468  1.00  0.00     0.026 A 
ATOM     19  C   UNL     1       2.690  -0.495  -0.560  1.00  0.00     0.053 A 
ATOM     20  C   UNL     1       4.407  -2.307   0.675  1.00  0.00     0.004 A 
ATOM     21  C   UNL     1       3.139  -2.079   1.207  1.00  0.00     0.027 A 
BRANCH  17  22
ATOM     22  N   UNL     1       4.460  -0.048  -2.239  1.00  0.00    -0.326 N 
ATOM     23  C   UNL     1       3.825   0.923  -2.994  1.00  0.00     0.221 C 
ATOM     24  O   UNL     1       2.706   1.387  -2.811  1.00  0.00    -0.275 OA
ATOM     25  C   UNL     1       4.689   1.404  -4.133  1.00  0.00     0.114 C 
ATOM     26  H   UNL     1       5.396  -0.304  -2.528  1.00  0.00     0.169 HD
ENDBRANCH  17  22
ENDBRANCH   1  16
BRANCH   4  27
ATOM     27  C   UNL     1      -1.863  -2.964   2.438  1.00  0.00     0.096 C 
ATOM     28  C   UNL     1      -2.634  -2.861   3.733  1.00  0.00     0.028 C 
ATOM     29  C   UNL     1      -1.397  -3.700   3.673  1.00  0.00     0.028 C 
ENDBRANCH   4  27
BRANCH   8  30
ATOM     30  N   UNL     1      -3.034   1.613   0.201  1.00  0.00    -0.338 N 
ATOM     31  H   UNL     1      -3.454   2.509   0.415  1.00  0.00     0.168 HD
BRANCH  30  32
ATOM     32  C   UNL     1      -3.646   1.016  -0.933  1.00  0.00     0.076 A 
ATOM     33  C   UNL     1      -5.029   1.201  -1.098  1.00  0.00     0.030 A 
ATOM     34  C   UNL     1      -2.994   0.166  -1.844  1.00  0.00     0.147 A 
ATOM     35  C   UNL     1      -5.722   0.597  -2.154  1.00  0.00     0.017 A 
ATOM     36  C   UNL     1      -3.674  -0.440  -2.900  1.00  0.00     0.056 A 
ATOM     37  C   UNL     1      -5.039  -0.220  -3.052  1.00  0.00     0.016 A 
ATOM     38  F   UNL     1      -1.678  -0.077  -1.742  1.00  0.00    -0.205 F 
ATOM     39  I   UNL     1      -6.064  -1.119  -4.619  1.00  0.00    -0.044 I 
ENDBRANCH  30  32
ENDBRANCH   8  30
TORSDOF 5
