MODEL 1
REMARK minimizedAffinity -8.36109924
REMARK minimizedRMSD -1
REMARK SMILES CN(C)C/C=C/C(=O)Nc1cc2c(Nc3ccc(F)c(Cl)c3)ncnc2cc1O[C@H]1CCOC1
REMARK SMILES IDX 7 1 8 2 9 3 6 5 5 6 4 7 2 8 1 9 3 10 10 11 11 12 28 13 12 14
REMARK SMILES IDX 27 15 13 16 26 17 23 18 25 19 24 20 29 21 30 22 31 23 34 24
REMARK SMILES IDX 32 25 33 26 14 27 15 29 16 30 22 31 17 32 20 33 18 34 21 35
REMARK SMILES IDX 19 36
REMARK H PARENT 9 4 14 28
ROOT
ATOM      1  C   UNL     1      -0.031 -15.610 -43.469  1.00  0.00     0.248 C 
ATOM      2  O   UNL     1      -0.819 -15.469 -44.397  1.00  0.00    -0.270 OA
ATOM      3  N   UNL     1       0.950 -14.735 -43.072  1.00  0.00    -0.319 N 
ATOM      4  H   UNL     1       1.419 -14.909 -42.187  1.00  0.00     0.170 HD
ENDROOT
BRANCH   1   5
ATOM      5  C   UNL     1      -0.161 -16.804 -42.588  1.00  0.00     0.068 C 
ATOM      6  C   UNL     1      -1.116 -17.735 -42.752  1.00  0.00    -0.006 C 
BRANCH   6   7
ATOM      7  C   UNL     1      -1.407 -18.966 -41.932  1.00  0.00     0.111 C 
BRANCH   7   8
ATOM      8  N   UNL     1      -0.412 -20.010 -41.733  1.00  0.00    -0.306 NA
ATOM      9  C   UNL     1      -0.929 -21.369 -41.782  1.00  0.00     0.105 C 
ATOM     10  C   UNL     1       0.509 -19.780 -40.632  1.00  0.00     0.105 C 
ENDBRANCH   7   8
ENDBRANCH   6   7
ENDBRANCH   1   5
BRANCH   3  11
ATOM     11  C   UNL     1       1.354 -13.541 -43.708  1.00  0.00     0.085 A 
ATOM     12  C   UNL     1       0.718 -12.316 -43.522  1.00  0.00     0.044 A 
ATOM     13  C   UNL     1       2.449 -13.616 -44.580  1.00  0.00     0.145 A 
ATOM     14  C   UNL     1       1.165 -11.151 -44.198  1.00  0.00     0.045 A 
ATOM     15  C   UNL     1       2.873 -12.471 -45.258  1.00  0.00     0.077 A 
ATOM     16  C   UNL     1       0.589  -9.869 -44.076  1.00  0.00     0.141 A 
ATOM     17  C   UNL     1       2.250 -11.243 -45.080  1.00  0.00     0.080 A 
ATOM     18  N   UNL     1       1.046  -8.818 -44.780  1.00  0.00    -0.219 NA
ATOM     19  N   UNL     1       2.717 -10.199 -45.768  1.00  0.00    -0.236 NA
ATOM     20  C   UNL     1       2.087  -9.034 -45.589  1.00  0.00     0.224 A 
BRANCH  13  21
ATOM     21  O   UNL     1       3.018 -14.859 -44.727  1.00  0.00    -0.486 OA
BRANCH  21  22
ATOM     22  C   UNL     1       4.443 -14.944 -44.563  1.00  0.00     0.201 C 
ATOM     23  C   UNL     1       4.733 -14.878 -43.078  1.00  0.00     0.076 C 
ATOM     24  C   UNL     1       4.954 -16.337 -44.917  1.00  0.00     0.205 C 
ATOM     25  C   UNL     1       4.484 -16.303 -42.639  1.00  0.00     0.164 C 
ATOM     26  O   UNL     1       4.904 -17.138 -43.722  1.00  0.00    -0.377 OA
ENDBRANCH  21  22
ENDBRANCH  13  21
BRANCH  16  27
ATOM     27  N   UNL     1      -0.508  -9.685 -43.191  1.00  0.00    -0.340 N 
ATOM     28  H   UNL     1      -0.194  -9.182 -42.367  1.00  0.00     0.168 HD
BRANCH  27  29
ATOM     29  C   UNL     1      -1.853  -9.398 -43.513  1.00  0.00     0.041 A 
ATOM     30  C   UNL     1      -2.207  -8.084 -43.857  1.00  0.00     0.029 A 
ATOM     31  C   UNL     1      -2.872 -10.358 -43.412  1.00  0.00     0.049 A 
ATOM     32  C   UNL     1      -3.534  -7.748 -44.143  1.00  0.00     0.043 A 
ATOM     33  C   UNL     1      -4.199 -10.024 -43.696  1.00  0.00     0.078 A 
ATOM     34  C   UNL     1      -4.522  -8.722 -44.062  1.00  0.00     0.141 A 
ATOM     35  Cl  UNL     1      -5.424 -11.231 -43.578  1.00  0.00    -0.081 Cl
ATOM     36  F   UNL     1      -5.788  -8.380 -44.341  1.00  0.00    -0.205 F 
ENDBRANCH  27  29
ENDBRANCH  16  27
ENDBRANCH   3  11
TORSDOF 8
ENDMDL
MODEL 2
REMARK minimizedAffinity -8.07967186
REMARK minimizedRMSD -1
REMARK SMILES CN(C)C/C=C/C(=O)Nc1cc2c(Nc3ccc(F)c(Cl)c3)ncnc2cc1O[C@H]1CCOC1
REMARK SMILES IDX 7 1 8 2 9 3 6 5 5 6 4 7 2 8 1 9 3 10 10 11 11 12 28 13 12 14
REMARK SMILES IDX 27 15 13 16 26 17 23 18 25 19 24 20 29 21 30 22 31 23 34 24
REMARK SMILES IDX 32 25 33 26 14 27 15 29 16 30 22 31 17 32 20 33 18 34 21 35
REMARK SMILES IDX 19 36
REMARK H PARENT 9 4 14 28
ROOT
ATOM      1  C   UNL     1       3.047 -15.177 -43.670  1.00  0.00     0.248 C 
ATOM      2  O   UNL     1       3.665 -16.216 -43.870  1.00  0.00    -0.270 OA
ATOM      3  N   UNL     1       1.745 -15.052 -43.253  1.00  0.00    -0.319 N 
ATOM      4  H   UNL     1       1.417 -14.132 -42.973  1.00  0.00     0.170 HD
ENDROOT
BRANCH   1   5
ATOM      5  C   UNL     1       3.764 -13.878 -43.796  1.00  0.00     0.068 C 
ATOM      6  C   UNL     1       4.435 -13.515 -44.902  1.00  0.00    -0.006 C 
BRANCH   6   7
ATOM      7  C   UNL     1       5.238 -12.268 -45.172  1.00  0.00     0.111 C 
BRANCH   7   8
ATOM      8  N   UNL     1       6.675 -12.314 -45.404  1.00  0.00    -0.306 NA
ATOM      9  C   UNL     1       7.315 -13.571 -45.047  1.00  0.00     0.105 C 
ATOM     10  C   UNL     1       7.409 -11.142 -44.956  1.00  0.00     0.105 C 
ENDBRANCH   7   8
ENDBRANCH   6   7
ENDBRANCH   1   5
BRANCH   3  11
ATOM     11  C   UNL     1       0.790 -16.077 -43.079  1.00  0.00     0.085 A 
ATOM     12  C   UNL     1       0.954 -17.140 -42.193  1.00  0.00     0.044 A 
ATOM     13  C   UNL     1      -0.375 -16.010 -43.856  1.00  0.00     0.145 A 
ATOM     14  C   UNL     1      -0.039 -18.147 -42.069  1.00  0.00     0.045 A 
ATOM     15  C   UNL     1      -1.340 -17.013 -43.744  1.00  0.00     0.077 A 
ATOM     16  C   UNL     1       0.036 -19.258 -41.204  1.00  0.00     0.141 A 
ATOM     17  C   UNL     1      -1.190 -18.076 -42.864  1.00  0.00     0.080 A 
ATOM     18  N   UNL     1      -0.930 -20.193 -41.169  1.00  0.00    -0.219 NA
ATOM     19  N   UNL     1      -2.159 -18.994 -42.820  1.00  0.00    -0.236 NA
ATOM     20  C   UNL     1      -1.979 -20.014 -41.976  1.00  0.00     0.224 A 
BRANCH  13  21
ATOM     21  O   UNL     1      -0.463 -14.942 -44.718  1.00  0.00    -0.486 OA
BRANCH  21  22
ATOM     22  C   UNL     1      -0.462 -15.241 -46.123  1.00  0.00     0.201 C 
ATOM     23  C   UNL     1      -0.351 -13.924 -46.865  1.00  0.00     0.076 C 
ATOM     24  C   UNL     1       0.829 -15.939 -46.536  1.00  0.00     0.205 C 
ATOM     25  C   UNL     1       1.135 -13.649 -46.808  1.00  0.00     0.164 C 
ATOM     26  O   UNL     1       1.785 -14.921 -46.888  1.00  0.00    -0.377 OA
ENDBRANCH  21  22
ENDBRANCH  13  21
BRANCH  16  27
ATOM     27  N   UNL     1       1.165 -19.398 -40.352  1.00  0.00    -0.340 N 
ATOM     28  H   UNL     1       0.930 -20.014 -39.580  1.00  0.00     0.168 HD
BRANCH  27  29
ATOM     29  C   UNL     1       2.527 -19.489 -40.713  1.00  0.00     0.041 A 
ATOM     30  C   UNL     1       2.926 -20.477 -41.628  1.00  0.00     0.029 A 
ATOM     31  C   UNL     1       3.518 -18.690 -40.123  1.00  0.00     0.049 A 
ATOM     32  C   UNL     1       4.270 -20.629 -41.982  1.00  0.00     0.043 A 
ATOM     33  C   UNL     1       4.862 -18.840 -40.474  1.00  0.00     0.078 A 
ATOM     34  C   UNL     1       5.230 -19.807 -41.404  1.00  0.00     0.141 A 
ATOM     35  Cl  UNL     1       6.052 -17.831 -39.742  1.00  0.00    -0.081 Cl
ATOM     36  F   UNL     1       6.514 -19.968 -41.758  1.00  0.00    -0.205 F 
ENDBRANCH  27  29
ENDBRANCH  16  27
ENDBRANCH   3  11
TORSDOF 8
ENDMDL
MODEL 3
REMARK minimizedAffinity -8.01394272
REMARK minimizedRMSD -1
REMARK SMILES CN(C)C/C=C/C(=O)Nc1cc2c(Nc3ccc(F)c(Cl)c3)ncnc2cc1O[C@H]1CCOC1
REMARK SMILES IDX 7 1 8 2 9 3 6 5 5 6 4 7 2 8 1 9 3 10 10 11 11 12 28 13 12 14
REMARK SMILES IDX 27 15 13 16 26 17 23 18 25 19 24 20 29 21 30 22 31 23 34 24
REMARK SMILES IDX 32 25 33 26 14 27 15 29 16 30 22 31 17 32 20 33 18 34 21 35
REMARK SMILES IDX 19 36
REMARK H PARENT 9 4 14 28
ROOT
ATOM      1  C   UNL     1      -1.631 -10.247 -44.153  1.00  0.00     0.248 C 
ATOM      2  O   UNL     1      -2.190 -10.895 -45.030  1.00  0.00    -0.270 OA
ATOM      3  N   UNL     1      -0.327 -10.362 -43.738  1.00  0.00    -0.319 N 
ATOM      4  H   UNL     1       0.043  -9.648 -43.116  1.00  0.00     0.170 HD
ENDROOT
BRANCH   1   5
ATOM      5  C   UNL     1      -2.376  -9.142 -43.488  1.00  0.00     0.068 C 
ATOM      6  C   UNL     1      -2.416  -7.889 -43.973  1.00  0.00    -0.006 C 
BRANCH   6   7
ATOM      7  C   UNL     1      -3.081  -6.660 -43.407  1.00  0.00     0.111 C 
BRANCH   7   8
ATOM      8  N   UNL     1      -2.755  -5.322 -43.879  1.00  0.00    -0.306 NA
ATOM      9  C   UNL     1      -3.552  -4.856 -45.002  1.00  0.00     0.105 C 
ATOM     10  C   UNL     1      -1.334  -5.050 -44.024  1.00  0.00     0.105 C 
ENDBRANCH   7   8
ENDBRANCH   6   7
ENDBRANCH   1   5
BRANCH   3  11
ATOM     11  C   UNL     1       0.625 -11.324 -44.135  1.00  0.00     0.085 A 
ATOM     12  C   UNL     1       0.653 -12.629 -43.648  1.00  0.00     0.044 A 
ATOM     13  C   UNL     1       1.596 -10.922 -45.064  1.00  0.00     0.145 A 
ATOM     14  C   UNL     1       1.644 -13.549 -44.078  1.00  0.00     0.045 A 
ATOM     15  C   UNL     1       2.581 -11.826 -45.470  1.00  0.00     0.077 A 
ATOM     16  C   UNL     1       1.754 -14.886 -43.643  1.00  0.00     0.141 A 
ATOM     17  C   UNL     1       2.618 -13.129 -44.993  1.00  0.00     0.080 A 
ATOM     18  N   UNL     1       2.746 -15.689 -44.069  1.00  0.00    -0.219 NA
ATOM     19  N   UNL     1       3.594 -13.928 -45.431  1.00  0.00    -0.236 NA
ATOM     20  C   UNL     1       3.614 -15.171 -44.943  1.00  0.00     0.224 A 
BRANCH  13  21
ATOM     21  O   UNL     1       1.518  -9.618 -45.491  1.00  0.00    -0.486 OA
BRANCH  21  22
ATOM     22  C   UNL     1       2.743  -8.868 -45.518  1.00  0.00     0.201 C 
ATOM     23  C   UNL     1       2.446  -7.539 -46.181  1.00  0.00     0.076 C 
ATOM     24  C   UNL     1       3.151  -8.431 -44.115  1.00  0.00     0.205 C 
ATOM     25  C   UNL     1       1.851  -6.740 -45.043  1.00  0.00     0.164 C 
ATOM     26  O   UNL     1       2.533  -7.156 -43.857  1.00  0.00    -0.377 OA
ENDBRANCH  21  22
ENDBRANCH  13  21
BRANCH  16  27
ATOM     27  N   UNL     1       0.797 -15.396 -42.725  1.00  0.00    -0.340 N 
ATOM     28  H   UNL     1      -0.073 -14.883 -42.827  1.00  0.00     0.168 HD
BRANCH  27  29
ATOM     29  C   UNL     1       0.585 -16.738 -42.338  1.00  0.00     0.041 A 
ATOM     30  C   UNL     1      -0.612 -17.374 -42.708  1.00  0.00     0.029 A 
ATOM     31  C   UNL     1       1.483 -17.436 -41.517  1.00  0.00     0.049 A 
ATOM     32  C   UNL     1      -0.880 -18.687 -42.312  1.00  0.00     0.043 A 
ATOM     33  C   UNL     1       1.217 -18.748 -41.118  1.00  0.00     0.078 A 
ATOM     34  C   UNL     1       0.038 -19.368 -41.520  1.00  0.00     0.141 A 
ATOM     35  Cl  UNL     1       2.349 -19.582 -40.122  1.00  0.00    -0.081 Cl
ATOM     36  F   UNL     1      -0.238 -20.628 -41.151  1.00  0.00    -0.205 F 
ENDBRANCH  27  29
ENDBRANCH  16  27
ENDBRANCH   3  11
TORSDOF 8
ENDMDL
MODEL 4
REMARK minimizedAffinity -8.00902081
REMARK minimizedRMSD -1
REMARK SMILES CN(C)C/C=C/C(=O)Nc1cc2c(Nc3ccc(F)c(Cl)c3)ncnc2cc1O[C@H]1CCOC1
REMARK SMILES IDX 7 1 8 2 9 3 6 5 5 6 4 7 2 8 1 9 3 10 10 11 11 12 28 13 12 14
REMARK SMILES IDX 27 15 13 16 26 17 23 18 25 19 24 20 29 21 30 22 31 23 34 24
REMARK SMILES IDX 32 25 33 26 14 27 15 29 16 30 22 31 17 32 20 33 18 34 21 35
REMARK SMILES IDX 19 36
REMARK H PARENT 9 4 14 28
ROOT
ATOM      1  C   UNL     1       0.020 -15.259 -43.747  1.00  0.00     0.248 C 
ATOM      2  O   UNL     1      -0.637 -15.096 -44.769  1.00  0.00    -0.270 OA
ATOM      3  N   UNL     1       1.050 -14.475 -43.289  1.00  0.00    -0.319 N 
ATOM      4  H   UNL     1       1.393 -14.637 -42.346  1.00  0.00     0.170 HD
ENDROOT
BRANCH   1   5
ATOM      5  C   UNL     1      -0.350 -16.364 -42.821  1.00  0.00     0.068 C 
ATOM      6  C   UNL     1      -1.234 -17.325 -43.141  1.00  0.00    -0.006 C 
BRANCH   6   7
ATOM      7  C   UNL     1      -1.744 -18.476 -42.312  1.00  0.00     0.111 C 
BRANCH   7   8
ATOM      8  N   UNL     1      -3.152 -18.611 -41.967  1.00  0.00    -0.306 NA
ATOM      9  C   UNL     1      -3.634 -19.980 -41.880  1.00  0.00     0.105 C 
ATOM     10  C   UNL     1      -4.050 -17.725 -42.689  1.00  0.00     0.105 C 
ENDBRANCH   7   8
ENDBRANCH   6   7
ENDBRANCH   1   5
BRANCH   3  11
ATOM     11  C   UNL     1       1.663 -13.384 -43.941  1.00  0.00     0.085 A 
ATOM     12  C   UNL     1       1.146 -12.090 -43.929  1.00  0.00     0.044 A 
ATOM     13  C   UNL     1       2.850 -13.638 -44.642  1.00  0.00     0.145 A 
ATOM     14  C   UNL     1       1.804 -11.034 -44.613  1.00  0.00     0.045 A 
ATOM     15  C   UNL     1       3.483 -12.600 -45.329  1.00  0.00     0.077 A 
ATOM     16  C   UNL     1       1.360  -9.696 -44.660  1.00  0.00     0.141 A 
ATOM     17  C   UNL     1       2.980 -11.306 -45.324  1.00  0.00     0.080 A 
ATOM     18  N   UNL     1       2.019  -8.757 -45.362  1.00  0.00    -0.219 NA
ATOM     19  N   UNL     1       3.646 -10.373 -46.009  1.00  0.00    -0.236 NA
ATOM     20  C   UNL     1       3.129  -9.141 -45.999  1.00  0.00     0.224 A 
BRANCH  13  21
ATOM     21  O   UNL     1       3.294 -14.939 -44.623  1.00  0.00    -0.486 OA
BRANCH  21  22
ATOM     22  C   UNL     1       4.700 -15.142 -44.408  1.00  0.00     0.201 C 
ATOM     23  C   UNL     1       4.940 -15.097 -42.912  1.00  0.00     0.076 C 
ATOM     24  C   UNL     1       5.107 -16.572 -44.745  1.00  0.00     0.205 C 
ATOM     25  C   UNL     1       4.559 -16.497 -42.485  1.00  0.00     0.164 C 
ATOM     26  O   UNL     1       4.947 -17.365 -43.554  1.00  0.00    -0.377 OA
ENDBRANCH  21  22
ENDBRANCH  13  21
BRANCH  16  27
ATOM     27  N   UNL     1       0.182  -9.333 -43.953  1.00  0.00    -0.340 N 
ATOM     28  H   UNL     1       0.433  -8.762 -43.152  1.00  0.00     0.168 HD
BRANCH  27  29
ATOM     29  C   UNL     1      -1.082  -8.988 -44.480  1.00  0.00     0.041 A 
ATOM     30  C   UNL     1      -1.394  -9.351 -45.801  1.00  0.00     0.029 A 
ATOM     31  C   UNL     1      -2.009  -8.214 -43.766  1.00  0.00     0.049 A 
ATOM     32  C   UNL     1      -2.617  -8.995 -46.375  1.00  0.00     0.043 A 
ATOM     33  C   UNL     1      -3.233  -7.855 -44.338  1.00  0.00     0.078 A 
ATOM     34  C   UNL     1      -3.531  -8.250 -45.638  1.00  0.00     0.141 A 
ATOM     35  Cl  UNL     1      -4.356  -6.916 -43.428  1.00  0.00    -0.081 Cl
ATOM     36  F   UNL     1      -4.700  -7.919 -46.207  1.00  0.00    -0.205 F 
ENDBRANCH  27  29
ENDBRANCH  16  27
ENDBRANCH   3  11
TORSDOF 8
ENDMDL
MODEL 5
REMARK minimizedAffinity -7.9748807
REMARK minimizedRMSD -1
REMARK SMILES CN(C)C/C=C/C(=O)Nc1cc2c(Nc3ccc(F)c(Cl)c3)ncnc2cc1O[C@H]1CCOC1
REMARK SMILES IDX 7 1 8 2 9 3 6 5 5 6 4 7 2 8 1 9 3 10 10 11 11 12 28 13 12 14
REMARK SMILES IDX 27 15 13 16 26 17 23 18 25 19 24 20 29 21 30 22 31 23 34 24
REMARK SMILES IDX 32 25 33 26 14 27 15 29 16 30 22 31 17 32 20 33 18 34 21 35
REMARK SMILES IDX 19 36
REMARK H PARENT 9 4 14 28
ROOT
ATOM      1  C   UNL     1       3.045 -15.198 -43.648  1.00  0.00     0.248 C 
ATOM      2  O   UNL     1       3.683 -16.218 -43.882  1.00  0.00    -0.270 OA
ATOM      3  N   UNL     1       1.750 -15.113 -43.199  1.00  0.00    -0.319 N 
ATOM      4  H   UNL     1       1.407 -14.205 -42.893  1.00  0.00     0.170 HD
ENDROOT
BRANCH   1   5
ATOM      5  C   UNL     1       3.727 -13.879 -43.765  1.00  0.00     0.068 C 
ATOM      6  C   UNL     1       4.226 -13.412 -44.922  1.00  0.00    -0.006 C 
BRANCH   6   7
ATOM      7  C   UNL     1       4.972 -12.132 -45.199  1.00  0.00     0.111 C 
BRANCH   7   8
ATOM      8  N   UNL     1       4.343 -10.828 -45.053  1.00  0.00    -0.306 NA
ATOM      9  C   UNL     1       2.992 -10.735 -45.583  1.00  0.00     0.105 C 
ATOM     10  C   UNL     1       5.184  -9.695 -45.405  1.00  0.00     0.105 C 
ENDBRANCH   7   8
ENDBRANCH   6   7
ENDBRANCH   1   5
BRANCH   3  11
ATOM     11  C   UNL     1       0.825 -16.163 -43.022  1.00  0.00     0.085 A 
ATOM     12  C   UNL     1       1.009 -17.208 -42.119  1.00  0.00     0.044 A 
ATOM     13  C   UNL     1      -0.332 -16.142 -43.815  1.00  0.00     0.145 A 
ATOM     14  C   UNL     1       0.045 -18.243 -41.993  1.00  0.00     0.045 A 
ATOM     15  C   UNL     1      -1.267 -17.172 -43.701  1.00  0.00     0.077 A 
ATOM     16  C   UNL     1       0.141 -19.340 -41.112  1.00  0.00     0.141 A 
ATOM     17  C   UNL     1      -1.097 -18.218 -42.804  1.00  0.00     0.080 A 
ATOM     18  N   UNL     1      -0.796 -20.303 -41.076  1.00  0.00    -0.219 NA
ATOM     19  N   UNL     1      -2.039 -19.164 -42.760  1.00  0.00    -0.236 NA
ATOM     20  C   UNL     1      -1.840 -20.166 -41.899  1.00  0.00     0.224 A 
BRANCH  13  21
ATOM     21  O   UNL     1      -0.441 -15.090 -44.693  1.00  0.00    -0.486 OA
BRANCH  21  22
ATOM     22  C   UNL     1      -0.459 -15.411 -46.093  1.00  0.00     0.201 C 
ATOM     23  C   UNL     1      -0.407 -14.105 -46.858  1.00  0.00     0.076 C 
ATOM     24  C   UNL     1       0.845 -16.075 -46.522  1.00  0.00     0.205 C 
ATOM     25  C   UNL     1       1.070 -13.781 -46.838  1.00  0.00     0.164 C 
ATOM     26  O   UNL     1       1.759 -15.032 -46.911  1.00  0.00    -0.377 OA
ENDBRANCH  21  22
ENDBRANCH  13  21
BRANCH  16  27
ATOM     27  N   UNL     1       1.263 -19.433 -40.244  1.00  0.00    -0.340 N 
ATOM     28  H   UNL     1       1.026 -20.021 -39.451  1.00  0.00     0.168 HD
BRANCH  27  29
ATOM     29  C   UNL     1       2.630 -19.524 -40.588  1.00  0.00     0.041 A 
ATOM     30  C   UNL     1       3.559 -18.713 -39.914  1.00  0.00     0.029 A 
ATOM     31  C   UNL     1       3.089 -20.326 -41.644  1.00  0.00     0.049 A 
ATOM     32  C   UNL     1       4.915 -18.741 -40.251  1.00  0.00     0.043 A 
ATOM     33  C   UNL     1       4.444 -20.355 -41.983  1.00  0.00     0.078 A 
ATOM     34  C   UNL     1       5.350 -19.565 -41.284  1.00  0.00     0.141 A 
ATOM     35  Cl  UNL     1       4.976 -21.364 -43.275  1.00  0.00    -0.081 Cl
ATOM     36  F   UNL     1       6.655 -19.578 -41.591  1.00  0.00    -0.205 F 
ENDBRANCH  27  29
ENDBRANCH  16  27
ENDBRANCH   3  11
TORSDOF 8
ENDMDL
MODEL 6
REMARK minimizedAffinity -7.90320587
REMARK minimizedRMSD -1
REMARK SMILES CN(C)C/C=C/C(=O)Nc1cc2c(Nc3ccc(F)c(Cl)c3)ncnc2cc1O[C@H]1CCOC1
REMARK SMILES IDX 7 1 8 2 9 3 6 5 5 6 4 7 2 8 1 9 3 10 10 11 11 12 28 13 12 14
REMARK SMILES IDX 27 15 13 16 26 17 23 18 25 19 24 20 29 21 30 22 31 23 34 24
REMARK SMILES IDX 32 25 33 26 14 27 15 29 16 30 22 31 17 32 20 33 18 34 21 35
REMARK SMILES IDX 19 36
REMARK H PARENT 9 4 14 28
ROOT
ATOM      1  C   UNL     1       3.585 -15.378 -43.400  1.00  0.00     0.248 C 
ATOM      2  O   UNL     1       4.051 -16.492 -43.611  1.00  0.00    -0.270 OA
ATOM      3  N   UNL     1       2.286 -15.069 -43.080  1.00  0.00    -0.319 N 
ATOM      4  H   UNL     1       2.080 -14.121 -42.773  1.00  0.00     0.170 HD
ENDROOT
BRANCH   1   5
ATOM      5  C   UNL     1       4.500 -14.203 -43.395  1.00  0.00     0.068 C 
ATOM      6  C   UNL     1       5.758 -14.256 -42.925  1.00  0.00    -0.006 C 
BRANCH   6   7
ATOM      7  C   UNL     1       6.787 -13.160 -42.811  1.00  0.00     0.111 C 
BRANCH   7   8
ATOM      8  N   UNL     1       7.067 -12.498 -41.545  1.00  0.00    -0.306 NA
ATOM      9  C   UNL     1       7.684 -11.185 -41.662  1.00  0.00     0.105 C 
ATOM     10  C   UNL     1       7.684 -13.339 -40.532  1.00  0.00     0.105 C 
ENDBRANCH   7   8
ENDBRANCH   6   7
ENDBRANCH   1   5
BRANCH   3  11
ATOM     11  C   UNL     1       1.175 -15.937 -43.040  1.00  0.00     0.085 A 
ATOM     12  C   UNL     1       1.094 -17.046 -42.201  1.00  0.00     0.044 A 
ATOM     13  C   UNL     1       0.108 -15.657 -43.906  1.00  0.00     0.145 A 
ATOM     14  C   UNL     1      -0.049 -17.889 -42.213  1.00  0.00     0.045 A 
ATOM     15  C   UNL     1      -1.005 -16.500 -43.928  1.00  0.00     0.077 A 
ATOM     16  C   UNL     1      -0.223 -19.032 -41.405  1.00  0.00     0.141 A 
ATOM     17  C   UNL     1      -1.099 -17.608 -43.096  1.00  0.00     0.080 A 
ATOM     18  N   UNL     1      -1.320 -19.805 -41.500  1.00  0.00    -0.219 NA
ATOM     19  N   UNL     1      -2.197 -18.363 -43.182  1.00  0.00    -0.236 NA
ATOM     20  C   UNL     1      -2.252 -19.431 -42.381  1.00  0.00     0.224 A 
BRANCH  13  21
ATOM     21  O   UNL     1       0.262 -14.556 -44.714  1.00  0.00    -0.486 OA
BRANCH  21  22
ATOM     22  C   UNL     1       0.723 -14.793 -46.055  1.00  0.00     0.201 C 
ATOM     23  C   UNL     1      -0.373 -14.339 -46.997  1.00  0.00     0.076 C 
ATOM     24  C   UNL     1       1.860 -13.846 -46.421  1.00  0.00     0.205 C 
ATOM     25  C   UNL     1      -0.141 -12.846 -47.062  1.00  0.00     0.164 C 
ATOM     26  O   UNL     1       1.274 -12.653 -46.976  1.00  0.00    -0.377 OA
ENDBRANCH  21  22
ENDBRANCH  13  21
BRANCH  16  27
ATOM     27  N   UNL     1       0.790 -19.381 -40.471  1.00  0.00    -0.340 N 
ATOM     28  H   UNL     1       0.445 -20.111 -39.857  1.00  0.00     0.168 HD
BRANCH  27  29
ATOM     29  C   UNL     1       2.183 -19.478 -40.687  1.00  0.00     0.041 A 
ATOM     30  C   UNL     1       3.049 -18.669 -39.934  1.00  0.00     0.029 A 
ATOM     31  C   UNL     1       2.733 -20.286 -41.694  1.00  0.00     0.049 A 
ATOM     32  C   UNL     1       4.431 -18.704 -40.144  1.00  0.00     0.043 A 
ATOM     33  C   UNL     1       4.114 -20.322 -41.907  1.00  0.00     0.078 A 
ATOM     34  C   UNL     1       4.955 -19.534 -41.130  1.00  0.00     0.141 A 
ATOM     35  Cl  UNL     1       4.758 -21.338 -43.141  1.00  0.00    -0.081 Cl
ATOM     36  F   UNL     1       6.283 -19.553 -41.315  1.00  0.00    -0.205 F 
ENDBRANCH  27  29
ENDBRANCH  16  27
ENDBRANCH   3  11
TORSDOF 8
ENDMDL
MODEL 7
REMARK minimizedAffinity -7.88013935
REMARK minimizedRMSD -1
REMARK SMILES CN(C)C/C=C/C(=O)Nc1cc2c(Nc3ccc(F)c(Cl)c3)ncnc2cc1O[C@H]1CCOC1
REMARK SMILES IDX 7 1 8 2 9 3 6 5 5 6 4 7 2 8 1 9 3 10 10 11 11 12 28 13 12 14
REMARK SMILES IDX 27 15 13 16 26 17 23 18 25 19 24 20 29 21 30 22 31 23 34 24
REMARK SMILES IDX 32 25 33 26 14 27 15 29 16 30 22 31 17 32 20 33 18 34 21 35
REMARK SMILES IDX 19 36
REMARK H PARENT 9 4 14 28
ROOT
ATOM      1  C   UNL     1       2.508 -14.262 -44.093  1.00  0.00     0.248 C 
ATOM      2  O   UNL     1       1.886 -15.055 -44.790  1.00  0.00    -0.270 OA
ATOM      3  N   UNL     1       3.652 -14.507 -43.375  1.00  0.00    -0.319 N 
ATOM      4  H   UNL     1       4.147 -13.713 -42.975  1.00  0.00     0.170 HD
ENDROOT
BRANCH   1   5
ATOM      5  C   UNL     1       2.066 -12.840 -44.050  1.00  0.00     0.068 C 
ATOM      6  C   UNL     1       0.933 -12.442 -43.447  1.00  0.00    -0.006 C 
BRANCH   6   7
ATOM      7  C   UNL     1       0.329 -11.065 -43.351  1.00  0.00     0.111 C 
BRANCH   7   8
ATOM      8  N   UNL     1      -0.873 -10.699 -44.087  1.00  0.00    -0.306 NA
ATOM      9  C   UNL     1      -0.678 -10.482 -45.512  1.00  0.00     0.105 C 
ATOM     10  C   UNL     1      -1.698  -9.683 -43.453  1.00  0.00     0.105 C 
ENDBRANCH   7   8
ENDBRANCH   6   7
ENDBRANCH   1   5
BRANCH   3  11
ATOM     11  C   UNL     1       4.302 -15.744 -43.177  1.00  0.00     0.085 A 
ATOM     12  C   UNL     1       3.814 -16.746 -42.341  1.00  0.00     0.044 A 
ATOM     13  C   UNL     1       5.509 -15.953 -43.859  1.00  0.00     0.145 A 
ATOM     14  C   UNL     1       4.519 -17.967 -42.175  1.00  0.00     0.045 A 
ATOM     15  C   UNL     1       6.209 -17.148 -43.678  1.00  0.00     0.077 A 
ATOM     16  C   UNL     1       4.108 -19.037 -41.353  1.00  0.00     0.141 A 
ATOM     17  C   UNL     1       5.732 -18.155 -42.850  1.00  0.00     0.080 A 
ATOM     18  N   UNL     1       4.850 -20.150 -41.217  1.00  0.00    -0.219 NA
ATOM     19  N   UNL     1       6.464 -19.265 -42.730  1.00  0.00    -0.236 NA
ATOM     20  C   UNL     1       5.989 -20.210 -41.913  1.00  0.00     0.224 A 
BRANCH  13  21
ATOM     21  O   UNL     1       5.938 -14.917 -44.655  1.00  0.00    -0.486 OA
BRANCH  21  22
ATOM     22  C   UNL     1       7.187 -14.301 -44.303  1.00  0.00     0.201 C 
ATOM     23  C   UNL     1       7.369 -13.098 -45.205  1.00  0.00     0.076 C 
ATOM     24  C   UNL     1       7.110 -13.648 -42.927  1.00  0.00     0.205 C 
ATOM     25  C   UNL     1       6.528 -12.048 -44.513  1.00  0.00     0.164 C 
ATOM     26  O   UNL     1       6.648 -12.296 -43.109  1.00  0.00    -0.377 OA
ENDBRANCH  21  22
ENDBRANCH  13  21
BRANCH  16  27
ATOM     27  N   UNL     1       2.880 -18.933 -40.645  1.00  0.00    -0.340 N 
ATOM     28  H   UNL     1       2.860 -18.055 -40.134  1.00  0.00     0.168 HD
BRANCH  27  29
ATOM     29  C   UNL     1       1.593 -19.338 -41.061  1.00  0.00     0.041 A 
ATOM     30  C   UNL     1       1.286 -20.709 -41.093  1.00  0.00     0.029 A 
ATOM     31  C   UNL     1       0.634 -18.431 -41.535  1.00  0.00     0.049 A 
ATOM     32  C   UNL     1       0.039 -21.156 -41.537  1.00  0.00     0.043 A 
ATOM     33  C   UNL     1      -0.613 -18.875 -41.980  1.00  0.00     0.078 A 
ATOM     34  C   UNL     1      -0.905 -20.235 -41.977  1.00  0.00     0.141 A 
ATOM     35  Cl  UNL     1      -1.774 -17.732 -42.541  1.00  0.00    -0.081 Cl
ATOM     36  F   UNL     1      -2.097 -20.685 -42.398  1.00  0.00    -0.205 F 
ENDBRANCH  27  29
ENDBRANCH  16  27
ENDBRANCH   3  11
TORSDOF 8
ENDMDL
MODEL 8
REMARK minimizedAffinity -7.79389095
REMARK minimizedRMSD -1
REMARK SMILES CN(C)C/C=C/C(=O)Nc1cc2c(Nc3ccc(F)c(Cl)c3)ncnc2cc1O[C@H]1CCOC1
REMARK SMILES IDX 7 1 8 2 9 3 6 5 5 6 4 7 2 8 1 9 3 10 10 11 11 12 28 13 12 14
REMARK SMILES IDX 27 15 13 16 26 17 23 18 25 19 24 20 29 21 30 22 31 23 34 24
REMARK SMILES IDX 32 25 33 26 14 27 15 29 16 30 22 31 17 32 20 33 18 34 21 35
REMARK SMILES IDX 19 36
REMARK H PARENT 9 4 14 28
ROOT
ATOM      1  C   UNL     1      -1.192 -10.537 -44.293  1.00  0.00     0.248 C 
ATOM      2  O   UNL     1      -1.690 -11.142 -45.235  1.00  0.00    -0.270 OA
ATOM      3  N   UNL     1       0.082 -10.675 -43.799  1.00  0.00    -0.319 N 
ATOM      4  H   UNL     1       0.409  -9.992 -43.120  1.00  0.00     0.170 HD
ENDROOT
BRANCH   1   5
ATOM      5  C   UNL     1      -1.981  -9.465 -43.627  1.00  0.00     0.068 C 
ATOM      6  C   UNL     1      -3.149  -9.008 -44.108  1.00  0.00    -0.006 C 
BRANCH   6   7
ATOM      7  C   UNL     1      -4.041  -7.911 -43.583  1.00  0.00     0.111 C 
BRANCH   7   8
ATOM      8  N   UNL     1      -5.019  -8.153 -42.532  1.00  0.00    -0.306 NA
ATOM      9  C   UNL     1      -5.644  -9.466 -42.565  1.00  0.00     0.105 C 
ATOM     10  C   UNL     1      -5.960  -7.068 -42.306  1.00  0.00     0.105 C 
ENDBRANCH   7   8
ENDBRANCH   6   7
ENDBRANCH   1   5
BRANCH   3  11
ATOM     11  C   UNL     1       1.061 -11.618 -44.179  1.00  0.00     0.085 A 
ATOM     12  C   UNL     1       1.139 -12.903 -43.648  1.00  0.00     0.044 A 
ATOM     13  C   UNL     1       2.004 -11.217 -45.136  1.00  0.00     0.145 A 
ATOM     14  C   UNL     1       2.154 -13.805 -44.063  1.00  0.00     0.045 A 
ATOM     15  C   UNL     1       3.012 -12.100 -45.527  1.00  0.00     0.077 A 
ATOM     16  C   UNL     1       2.316 -15.122 -43.585  1.00  0.00     0.141 A 
ATOM     17  C   UNL     1       3.100 -13.385 -45.007  1.00  0.00     0.080 A 
ATOM     18  N   UNL     1       3.328 -15.905 -43.999  1.00  0.00    -0.219 NA
ATOM     19  N   UNL     1       4.096 -14.165 -45.433  1.00  0.00    -0.236 NA
ATOM     20  C   UNL     1       4.165 -15.389 -44.903  1.00  0.00     0.224 A 
BRANCH  13  21
ATOM     21  O   UNL     1       1.875  -9.931 -45.606  1.00  0.00    -0.486 OA
BRANCH  21  22
ATOM     22  C   UNL     1       3.020  -9.073 -45.474  1.00  0.00     0.201 C 
ATOM     23  C   UNL     1       2.748  -7.826 -46.290  1.00  0.00     0.076 C 
ATOM     24  C   UNL     1       3.122  -8.505 -44.062  1.00  0.00     0.205 C 
ATOM     25  C   UNL     1       1.889  -7.010 -45.350  1.00  0.00     0.164 C 
ATOM     26  O   UNL     1       2.367  -7.279 -44.029  1.00  0.00    -0.377 OA
ENDBRANCH  21  22
ENDBRANCH  13  21
BRANCH  16  27
ATOM     27  N   UNL     1       1.390 -15.632 -42.635  1.00  0.00    -0.340 N 
ATOM     28  H   UNL     1       1.136 -14.895 -41.984  1.00  0.00     0.168 HD
BRANCH  27  29
ATOM     29  C   UNL     1       0.334 -16.545 -42.846  1.00  0.00     0.041 A 
ATOM     30  C   UNL     1      -0.699 -16.202 -43.733  1.00  0.00     0.029 A 
ATOM     31  C   UNL     1       0.226 -17.749 -42.132  1.00  0.00     0.049 A 
ATOM     32  C   UNL     1      -1.784 -17.059 -43.941  1.00  0.00     0.043 A 
ATOM     33  C   UNL     1      -0.857 -18.607 -42.337  1.00  0.00     0.078 A 
ATOM     34  C   UNL     1      -1.855 -18.259 -43.242  1.00  0.00     0.141 A 
ATOM     35  Cl  UNL     1      -0.951 -20.085 -41.456  1.00  0.00    -0.081 Cl
ATOM     36  F   UNL     1      -2.903 -19.068 -43.456  1.00  0.00    -0.205 F 
ENDBRANCH  27  29
ENDBRANCH  16  27
ENDBRANCH   3  11
TORSDOF 8
ENDMDL
MODEL 9
REMARK minimizedAffinity -7.77635622
REMARK minimizedRMSD -1
REMARK SMILES CN(C)C/C=C/C(=O)Nc1cc2c(Nc3ccc(F)c(Cl)c3)ncnc2cc1O[C@H]1CCOC1
REMARK SMILES IDX 7 1 8 2 9 3 6 5 5 6 4 7 2 8 1 9 3 10 10 11 11 12 28 13 12 14
REMARK SMILES IDX 27 15 13 16 26 17 23 18 25 19 24 20 29 21 30 22 31 23 34 24
REMARK SMILES IDX 32 25 33 26 14 27 15 29 16 30 22 31 17 32 20 33 18 34 21 35
REMARK SMILES IDX 19 36
REMARK H PARENT 9 4 14 28
ROOT
ATOM      1  C   UNL     1       1.744 -12.117 -44.156  1.00  0.00     0.248 C 
ATOM      2  O   UNL     1       1.246 -11.934 -43.051  1.00  0.00    -0.270 OA
ATOM      3  N   UNL     1       2.103 -11.161 -45.073  1.00  0.00    -0.319 N 
ATOM      4  H   UNL     1       2.655 -11.451 -45.877  1.00  0.00     0.170 HD
ENDROOT
BRANCH   1   5
ATOM      5  C   UNL     1       2.098 -13.504 -44.566  1.00  0.00     0.068 C 
ATOM      6  C   UNL     1       1.523 -14.130 -45.607  1.00  0.00    -0.006 C 
BRANCH   6   7
ATOM      7  C   UNL     1       1.736 -15.531 -46.121  1.00  0.00     0.111 C 
BRANCH   7   8
ATOM      8  N   UNL     1       0.726 -16.222 -46.910  1.00  0.00    -0.306 NA
ATOM      9  C   UNL     1       1.233 -16.922 -48.080  1.00  0.00     0.105 C 
ATOM     10  C   UNL     1      -0.482 -15.456 -47.171  1.00  0.00     0.105 C 
ENDBRANCH   7   8
ENDBRANCH   6   7
ENDBRANCH   1   5
BRANCH   3  11
ATOM     11  C   UNL     1       1.873  -9.770 -45.009  1.00  0.00     0.085 A 
ATOM     12  C   UNL     1       0.628  -9.184 -45.229  1.00  0.00     0.044 A 
ATOM     13  C   UNL     1       2.972  -8.949 -44.718  1.00  0.00     0.145 A 
ATOM     14  C   UNL     1       0.462  -7.776 -45.160  1.00  0.00     0.045 A 
ATOM     15  C   UNL     1       2.807  -7.563 -44.671  1.00  0.00     0.077 A 
ATOM     16  C   UNL     1      -0.754  -7.091 -45.367  1.00  0.00     0.141 A 
ATOM     17  C   UNL     1       1.572  -6.967 -44.886  1.00  0.00     0.080 A 
ATOM     18  N   UNL     1      -0.826  -5.749 -45.323  1.00  0.00    -0.219 NA
ATOM     19  N   UNL     1       1.501  -5.635 -44.825  1.00  0.00    -0.236 NA
ATOM     20  C   UNL     1       0.303  -5.088 -45.052  1.00  0.00     0.224 A 
BRANCH  13  21
ATOM     21  O   UNL     1       4.171  -9.594 -44.527  1.00  0.00    -0.486 OA
BRANCH  21  22
ATOM     22  C   UNL     1       5.354  -8.909 -44.969  1.00  0.00     0.201 C 
ATOM     23  C   UNL     1       6.419  -9.116 -43.912  1.00  0.00     0.076 C 
ATOM     24  C   UNL     1       5.975  -9.605 -46.176  1.00  0.00     0.205 C 
ATOM     25  C   UNL     1       6.950 -10.489 -44.257  1.00  0.00     0.164 C 
ATOM     26  O   UNL     1       6.895 -10.597 -45.683  1.00  0.00    -0.377 OA
ENDBRANCH  21  22
ENDBRANCH  13  21
BRANCH  16  27
ATOM     27  N   UNL     1      -1.932  -7.839 -45.637  1.00  0.00    -0.340 N 
ATOM     28  H   UNL     1      -1.708  -8.604 -46.266  1.00  0.00     0.168 HD
BRANCH  27  29
ATOM     29  C   UNL     1      -2.983  -8.166 -44.752  1.00  0.00     0.041 A 
ATOM     30  C   UNL     1      -3.439  -7.194 -43.845  1.00  0.00     0.029 A 
ATOM     31  C   UNL     1      -3.530  -9.455 -44.675  1.00  0.00     0.049 A 
ATOM     32  C   UNL     1      -4.448  -7.487 -42.924  1.00  0.00     0.043 A 
ATOM     33  C   UNL     1      -4.538  -9.752 -43.754  1.00  0.00     0.078 A 
ATOM     34  C   UNL     1      -4.993  -8.766 -42.886  1.00  0.00     0.141 A 
ATOM     35  Cl  UNL     1      -5.199 -11.342 -43.698  1.00  0.00    -0.081 Cl
ATOM     36  F   UNL     1      -5.962  -9.027 -41.995  1.00  0.00    -0.205 F 
ENDBRANCH  27  29
ENDBRANCH  16  27
ENDBRANCH   3  11
TORSDOF 8
ENDMDL
MODEL 10
REMARK minimizedAffinity -7.63776255
REMARK minimizedRMSD -1
REMARK SMILES CN(C)C/C=C/C(=O)Nc1cc2c(Nc3ccc(F)c(Cl)c3)ncnc2cc1O[C@H]1CCOC1
REMARK SMILES IDX 7 1 8 2 9 3 6 5 5 6 4 7 2 8 1 9 3 10 10 11 11 12 28 13 12 14
REMARK SMILES IDX 27 15 13 16 26 17 23 18 25 19 24 20 29 21 30 22 31 23 34 24
REMARK SMILES IDX 32 25 33 26 14 27 15 29 16 30 22 31 17 32 20 33 18 34 21 35
REMARK SMILES IDX 19 36
REMARK H PARENT 9 4 14 28
ROOT
ATOM      1  C   UNL     1       0.333 -10.558 -44.338  1.00  0.00     0.248 C 
ATOM      2  O   UNL     1       0.667 -10.474 -43.162  1.00  0.00    -0.270 OA
ATOM      3  N   UNL     1       1.079 -11.051 -45.379  1.00  0.00    -0.319 N 
ATOM      4  H   UNL     1       0.614 -11.211 -46.269  1.00  0.00     0.170 HD
ENDROOT
BRANCH   1   5
ATOM      5  C   UNL     1      -1.054 -10.175 -44.722  1.00  0.00     0.068 C 
ATOM      6  C   UNL     1      -1.365  -9.654 -45.921  1.00  0.00    -0.006 C 
BRANCH   6   7
ATOM      7  C   UNL     1      -2.697  -9.181 -46.446  1.00  0.00     0.111 C 
BRANCH   7   8
ATOM      8  N   UNL     1      -3.111  -7.789 -46.347  1.00  0.00    -0.306 NA
ATOM      9  C   UNL     1      -2.107  -6.886 -45.808  1.00  0.00     0.105 C 
ATOM     10  C   UNL     1      -4.438  -7.580 -45.790  1.00  0.00     0.105 C 
ENDBRANCH   7   8
ENDBRANCH   6   7
ENDBRANCH   1   5
BRANCH   3  11
ATOM     11  C   UNL     1       2.430 -11.458 -45.360  1.00  0.00     0.085 A 
ATOM     12  C   UNL     1       3.503 -10.569 -45.367  1.00  0.00     0.044 A 
ATOM     13  C   UNL     1       2.687 -12.836 -45.343  1.00  0.00     0.145 A 
ATOM     14  C   UNL     1       4.842 -11.039 -45.357  1.00  0.00     0.045 A 
ATOM     15  C   UNL     1       4.006 -13.294 -45.352  1.00  0.00     0.077 A 
ATOM     16  C   UNL     1       5.991 -10.221 -45.364  1.00  0.00     0.141 A 
ATOM     17  C   UNL     1       5.084 -12.419 -45.358  1.00  0.00     0.080 A 
ATOM     18  N   UNL     1       7.230 -10.742 -45.392  1.00  0.00    -0.219 NA
ATOM     19  N   UNL     1       6.313 -12.940 -45.369  1.00  0.00    -0.236 NA
ATOM     20  C   UNL     1       7.330 -12.074 -45.390  1.00  0.00     0.224 A 
BRANCH  13  21
ATOM     21  O   UNL     1       1.583 -13.655 -45.351  1.00  0.00    -0.486 OA
BRANCH  21  22
ATOM     22  C   UNL     1       1.212 -14.234 -46.613  1.00  0.00     0.201 C 
ATOM     23  C   UNL     1       1.349 -15.737 -46.479  1.00  0.00     0.076 C 
ATOM     24  C   UNL     1      -0.283 -14.081 -46.870  1.00  0.00     0.205 C 
ATOM     25  C   UNL     1       0.054 -16.117 -45.797  1.00  0.00     0.164 C 
ATOM     26  O   UNL     1      -0.945 -15.226 -46.302  1.00  0.00    -0.377 OA
ENDBRANCH  21  22
ENDBRANCH  13  21
BRANCH  16  27
ATOM     27  N   UNL     1       5.834  -8.808 -45.349  1.00  0.00    -0.340 N 
ATOM     28  H   UNL     1       5.619  -8.484 -46.287  1.00  0.00     0.168 HD
BRANCH  27  29
ATOM     29  C   UNL     1       5.232  -8.006 -44.355  1.00  0.00     0.041 A 
ATOM     30  C   UNL     1       5.675  -8.116 -43.027  1.00  0.00     0.029 A 
ATOM     31  C   UNL     1       4.140  -7.166 -44.624  1.00  0.00     0.049 A 
ATOM     32  C   UNL     1       5.080  -7.371 -42.005  1.00  0.00     0.043 A 
ATOM     33  C   UNL     1       3.542  -6.421 -43.605  1.00  0.00     0.078 A 
ATOM     34  C   UNL     1       4.017  -6.525 -42.302  1.00  0.00     0.141 A 
ATOM     35  Cl  UNL     1       2.214  -5.387 -43.973  1.00  0.00    -0.081 Cl
ATOM     36  F   UNL     1       3.460  -5.818 -41.307  1.00  0.00    -0.205 F 
ENDBRANCH  27  29
ENDBRANCH  16  27
ENDBRANCH   3  11
TORSDOF 8
ENDMDL
MODEL 11
REMARK minimizedAffinity -7.59131765
REMARK minimizedRMSD -1
REMARK SMILES CN(C)C/C=C/C(=O)Nc1cc2c(Nc3ccc(F)c(Cl)c3)ncnc2cc1O[C@H]1CCOC1
REMARK SMILES IDX 7 1 8 2 9 3 6 5 5 6 4 7 2 8 1 9 3 10 10 11 11 12 28 13 12 14
REMARK SMILES IDX 27 15 13 16 26 17 23 18 25 19 24 20 29 21 30 22 31 23 34 24
REMARK SMILES IDX 32 25 33 26 14 27 15 29 16 30 22 31 17 32 20 33 18 34 21 35
REMARK SMILES IDX 19 36
REMARK H PARENT 9 4 14 28
ROOT
ATOM      1  C   UNL     1       6.128 -16.664 -44.570  1.00  0.00     0.248 C 
ATOM      2  O   UNL     1       5.458 -17.231 -45.425  1.00  0.00    -0.270 OA
ATOM      3  N   UNL     1       6.101 -16.881 -43.214  1.00  0.00    -0.319 N 
ATOM      4  H   UNL     1       6.828 -16.454 -42.645  1.00  0.00     0.170 HD
ENDROOT
BRANCH   1   5
ATOM      5  C   UNL     1       7.162 -15.683 -44.999  1.00  0.00     0.068 C 
ATOM      6  C   UNL     1       7.118 -14.380 -44.671  1.00  0.00    -0.006 C 
BRANCH   6   7
ATOM      7  C   UNL     1       8.052 -13.261 -45.055  1.00  0.00     0.111 C 
BRANCH   7   8
ATOM      8  N   UNL     1       7.901 -11.915 -44.520  1.00  0.00    -0.306 NA
ATOM      9  C   UNL     1       7.536 -11.852 -43.113  1.00  0.00     0.105 C 
ATOM     10  C   UNL     1       7.143 -11.001 -45.357  1.00  0.00     0.105 C 
ENDBRANCH   7   8
ENDBRANCH   6   7
ENDBRANCH   1   5
BRANCH   3  11
ATOM     11  C   UNL     1       5.219 -17.709 -42.488  1.00  0.00     0.085 A 
ATOM     12  C   UNL     1       3.910 -17.352 -42.172  1.00  0.00     0.044 A 
ATOM     13  C   UNL     1       5.709 -18.951 -42.059  1.00  0.00     0.145 A 
ATOM     14  C   UNL     1       3.073 -18.225 -41.429  1.00  0.00     0.045 A 
ATOM     15  C   UNL     1       4.888 -19.798 -41.312  1.00  0.00     0.077 A 
ATOM     16  C   UNL     1       1.739 -17.953 -41.061  1.00  0.00     0.141 A 
ATOM     17  C   UNL     1       3.581 -19.455 -40.992  1.00  0.00     0.080 A 
ATOM     18  N   UNL     1       1.020 -18.816 -40.321  1.00  0.00    -0.219 NA
ATOM     19  N   UNL     1       2.865 -20.321 -40.272  1.00  0.00    -0.236 NA
ATOM     20  C   UNL     1       1.617 -19.957 -39.966  1.00  0.00     0.224 A 
BRANCH  13  21
ATOM     21  O   UNL     1       7.013 -19.232 -42.394  1.00  0.00    -0.486 OA
BRANCH  21  22
ATOM     22  C   UNL     1       7.271 -20.520 -42.973  1.00  0.00     0.201 C 
ATOM     23  C   UNL     1       6.842 -20.459 -44.425  1.00  0.00     0.076 C 
ATOM     24  C   UNL     1       8.769 -20.775 -43.103  1.00  0.00     0.205 C 
ATOM     25  C   UNL     1       8.034 -19.799 -45.083  1.00  0.00     0.164 C 
ATOM     26  O   UNL     1       9.191 -20.264 -44.381  1.00  0.00    -0.377 OA
ENDBRANCH  21  22
ENDBRANCH  13  21
BRANCH  16  27
ATOM     27  N   UNL     1       1.142 -16.732 -41.476  1.00  0.00    -0.340 N 
ATOM     28  H   UNL     1       1.660 -15.953 -41.082  1.00  0.00     0.168 HD
BRANCH  27  29
ATOM     29  C   UNL     1       0.576 -16.417 -42.731  1.00  0.00     0.041 A 
ATOM     30  C   UNL     1      -0.597 -17.076 -43.136  1.00  0.00     0.029 A 
ATOM     31  C   UNL     1       1.191 -15.538 -43.635  1.00  0.00     0.049 A 
ATOM     32  C   UNL     1      -1.167 -16.826 -44.387  1.00  0.00     0.043 A 
ATOM     33  C   UNL     1       0.623 -15.286 -44.886  1.00  0.00     0.078 A 
ATOM     34  C   UNL     1      -0.553 -15.929 -45.255  1.00  0.00     0.141 A 
ATOM     35  Cl  UNL     1       1.397 -14.188 -45.967  1.00  0.00    -0.081 Cl
ATOM     36  F   UNL     1      -1.117 -15.702 -46.450  1.00  0.00    -0.205 F 
ENDBRANCH  27  29
ENDBRANCH  16  27
ENDBRANCH   3  11
TORSDOF 8
ENDMDL
MODEL 12
REMARK minimizedAffinity -7.56905699
REMARK minimizedRMSD -1
REMARK SMILES CN(C)C/C=C/C(=O)Nc1cc2c(Nc3ccc(F)c(Cl)c3)ncnc2cc1O[C@H]1CCOC1
REMARK SMILES IDX 7 1 8 2 9 3 6 5 5 6 4 7 2 8 1 9 3 10 10 11 11 12 28 13 12 14
REMARK SMILES IDX 27 15 13 16 26 17 23 18 25 19 24 20 29 21 30 22 31 23 34 24
REMARK SMILES IDX 32 25 33 26 14 27 15 29 16 30 22 31 17 32 20 33 18 34 21 35
REMARK SMILES IDX 19 36
REMARK H PARENT 9 4 14 28
ROOT
ATOM      1  C   UNL     1       5.184 -15.765 -42.612  1.00  0.00     0.248 C 
ATOM      2  O   UNL     1       4.638 -15.728 -43.709  1.00  0.00    -0.270 OA
ATOM      3  N   UNL     1       4.962 -16.669 -41.604  1.00  0.00    -0.319 N 
ATOM      4  H   UNL     1       5.603 -16.676 -40.815  1.00  0.00     0.170 HD
ENDROOT
BRANCH   1   5
ATOM      5  C   UNL     1       6.277 -14.797 -42.320  1.00  0.00     0.068 C 
ATOM      6  C   UNL     1       7.134 -14.946 -41.295  1.00  0.00    -0.006 C 
BRANCH   6   7
ATOM      7  C   UNL     1       8.256 -14.047 -40.842  1.00  0.00     0.111 C 
BRANCH   7   8
ATOM      8  N   UNL     1       8.042 -12.976 -39.880  1.00  0.00    -0.306 NA
ATOM      9  C   UNL     1       7.610 -13.413 -38.561  1.00  0.00     0.105 C 
ATOM     10  C   UNL     1       7.297 -11.834 -40.384  1.00  0.00     0.105 C 
ENDBRANCH   7   8
ENDBRANCH   6   7
ENDBRANCH   1   5
BRANCH   3  11
ATOM     11  C   UNL     1       3.978 -17.680 -41.549  1.00  0.00     0.085 A 
ATOM     12  C   UNL     1       2.612 -17.433 -41.667  1.00  0.00     0.044 A 
ATOM     13  C   UNL     1       4.419 -18.996 -41.352  1.00  0.00     0.145 A 
ATOM     14  C   UNL     1       1.670 -18.492 -41.593  1.00  0.00     0.045 A 
ATOM     15  C   UNL     1       3.487 -20.032 -41.261  1.00  0.00     0.077 A 
ATOM     16  C   UNL     1       0.271 -18.344 -41.700  1.00  0.00     0.141 A 
ATOM     17  C   UNL     1       2.123 -19.800 -41.379  1.00  0.00     0.080 A 
ATOM     18  N   UNL     1      -0.563 -19.392 -41.582  1.00  0.00    -0.219 NA
ATOM     19  N   UNL     1       1.300 -20.846 -41.277  1.00  0.00    -0.236 NA
ATOM     20  C   UNL     1      -0.008 -20.590 -41.379  1.00  0.00     0.224 A 
BRANCH  13  21
ATOM     21  O   UNL     1       5.778 -19.164 -41.230  1.00  0.00    -0.486 OA
BRANCH  21  22
ATOM     22  C   UNL     1       6.515 -19.400 -42.440  1.00  0.00     0.201 C 
ATOM     23  C   UNL     1       7.927 -18.898 -42.216  1.00  0.00     0.076 C 
ATOM     24  C   UNL     1       6.748 -20.891 -42.661  1.00  0.00     0.205 C 
ATOM     25  C   UNL     1       8.563 -20.051 -41.472  1.00  0.00     0.164 C 
ATOM     26  O   UNL     1       7.978 -21.245 -42.001  1.00  0.00    -0.377 OA
ENDBRANCH  21  22
ENDBRANCH  13  21
BRANCH  16  27
ATOM     27  N   UNL     1      -0.271 -17.050 -41.932  1.00  0.00    -0.340 N 
ATOM     28  H   UNL     1      -0.128 -16.473 -41.109  1.00  0.00     0.168 HD
BRANCH  27  29
ATOM     29  C   UNL     1      -0.251 -16.295 -43.125  1.00  0.00     0.041 A 
ATOM     30  C   UNL     1      -0.697 -16.889 -44.317  1.00  0.00     0.029 A 
ATOM     31  C   UNL     1       0.285 -15.000 -43.187  1.00  0.00     0.049 A 
ATOM     32  C   UNL     1      -0.656 -16.191 -45.528  1.00  0.00     0.043 A 
ATOM     33  C   UNL     1       0.328 -14.300 -44.396  1.00  0.00     0.078 A 
ATOM     34  C   UNL     1      -0.145 -14.898 -45.559  1.00  0.00     0.141 A 
ATOM     35  Cl  UNL     1       0.979 -12.705 -44.434  1.00  0.00    -0.081 Cl
ATOM     36  F   UNL     1      -0.115 -14.246 -46.730  1.00  0.00    -0.205 F 
ENDBRANCH  27  29
ENDBRANCH  16  27
ENDBRANCH   3  11
TORSDOF 8
ENDMDL
MODEL 13
REMARK minimizedAffinity -7.56104183
REMARK minimizedRMSD -1
REMARK SMILES CN(C)C/C=C/C(=O)Nc1cc2c(Nc3ccc(F)c(Cl)c3)ncnc2cc1O[C@H]1CCOC1
REMARK SMILES IDX 7 1 8 2 9 3 6 5 5 6 4 7 2 8 1 9 3 10 10 11 11 12 28 13 12 14
REMARK SMILES IDX 27 15 13 16 26 17 23 18 25 19 24 20 29 21 30 22 31 23 34 24
REMARK SMILES IDX 32 25 33 26 14 27 15 29 16 30 22 31 17 32 20 33 18 34 21 35
REMARK SMILES IDX 19 36
REMARK H PARENT 9 4 14 28
ROOT
ATOM      1  C   UNL     1       0.703 -11.173 -44.032  1.00  0.00     0.248 C 
ATOM      2  O   UNL     1       1.085 -10.809 -42.926  1.00  0.00    -0.270 OA
ATOM      3  N   UNL     1       0.657 -10.424 -45.182  1.00  0.00    -0.319 N 
ATOM      4  H   UNL     1       0.472 -10.904 -46.060  1.00  0.00     0.170 HD
ENDROOT
BRANCH   1   5
ATOM      5  C   UNL     1       0.315 -12.597 -44.228  1.00  0.00     0.068 C 
ATOM      6  C   UNL     1       0.737 -13.588 -43.425  1.00  0.00    -0.006 C 
BRANCH   6   7
ATOM      7  C   UNL     1       0.473 -15.070 -43.509  1.00  0.00     0.111 C 
BRANCH   7   8
ATOM      8  N   UNL     1      -0.675 -15.607 -44.226  1.00  0.00    -0.306 NA
ATOM      9  C   UNL     1      -1.420 -16.633 -43.512  1.00  0.00     0.105 C 
ATOM     10  C   UNL     1      -0.431 -15.933 -45.622  1.00  0.00     0.105 C 
ENDBRANCH   7   8
ENDBRANCH   6   7
ENDBRANCH   1   5
BRANCH   3  11
ATOM     11  C   UNL     1       0.919  -9.045 -45.329  1.00  0.00     0.085 A 
ATOM     12  C   UNL     1       2.194  -8.521 -45.529  1.00  0.00     0.044 A 
ATOM     13  C   UNL     1      -0.174  -8.171 -45.255  1.00  0.00     0.145 A 
ATOM     14  C   UNL     1       2.396  -7.121 -45.659  1.00  0.00     0.045 A 
ATOM     15  C   UNL     1       0.032  -6.794 -45.365  1.00  0.00     0.077 A 
ATOM     16  C   UNL     1       3.644  -6.497 -45.862  1.00  0.00     0.141 A 
ATOM     17  C   UNL     1       1.297  -6.258 -45.566  1.00  0.00     0.080 A 
ATOM     18  N   UNL     1       3.761  -5.159 -45.939  1.00  0.00    -0.219 NA
ATOM     19  N   UNL     1       1.406  -4.931 -45.658  1.00  0.00    -0.236 NA
ATOM     20  C   UNL     1       2.638  -4.443 -45.835  1.00  0.00     0.224 A 
BRANCH  13  21
ATOM     21  O   UNL     1      -1.400  -8.756 -45.042  1.00  0.00    -0.486 OA
BRANCH  21  22
ATOM     22  C   UNL     1      -2.029  -8.505 -43.775  1.00  0.00     0.201 C 
ATOM     23  C   UNL     1      -3.267  -7.674 -44.041  1.00  0.00     0.076 C 
ATOM     24  C   UNL     1      -2.630  -9.782 -43.196  1.00  0.00     0.205 C 
ATOM     25  C   UNL     1      -4.273  -8.723 -44.458  1.00  0.00     0.164 C 
ATOM     26  O   UNL     1      -3.977  -9.894 -43.691  1.00  0.00    -0.377 OA
ENDBRANCH  21  22
ENDBRANCH  13  21
BRANCH  16  27
ATOM     27  N   UNL     1       4.810  -7.301 -45.982  1.00  0.00    -0.340 N 
ATOM     28  H   UNL     1       5.429  -6.894 -46.676  1.00  0.00     0.168 HD
BRANCH  27  29
ATOM     29  C   UNL     1       5.517  -7.973 -44.962  1.00  0.00     0.041 A 
ATOM     30  C   UNL     1       5.607  -7.382 -43.690  1.00  0.00     0.029 A 
ATOM     31  C   UNL     1       6.217  -9.167 -45.191  1.00  0.00     0.049 A 
ATOM     32  C   UNL     1       6.332  -7.993 -42.663  1.00  0.00     0.043 A 
ATOM     33  C   UNL     1       6.943  -9.779 -44.166  1.00  0.00     0.078 A 
ATOM     34  C   UNL     1       6.995  -9.190 -42.907  1.00  0.00     0.141 A 
ATOM     35  Cl  UNL     1       7.778 -11.254 -44.478  1.00  0.00    -0.081 Cl
ATOM     36  F   UNL     1       7.684  -9.761 -41.908  1.00  0.00    -0.205 F 
ENDBRANCH  27  29
ENDBRANCH  16  27
ENDBRANCH   3  11
TORSDOF 8
ENDMDL
MODEL 14
REMARK minimizedAffinity -7.52203512
REMARK minimizedRMSD -1
REMARK SMILES CN(C)C/C=C/C(=O)Nc1cc2c(Nc3ccc(F)c(Cl)c3)ncnc2cc1O[C@H]1CCOC1
REMARK SMILES IDX 7 1 8 2 9 3 6 5 5 6 4 7 2 8 1 9 3 10 10 11 11 12 28 13 12 14
REMARK SMILES IDX 27 15 13 16 26 17 23 18 25 19 24 20 29 21 30 22 31 23 34 24
REMARK SMILES IDX 32 25 33 26 14 27 15 29 16 30 22 31 17 32 20 33 18 34 21 35
REMARK SMILES IDX 19 36
REMARK H PARENT 9 4 14 28
ROOT
ATOM      1  C   UNL     1       4.709 -16.774 -42.740  1.00  0.00     0.248 C 
ATOM      2  O   UNL     1       5.232 -17.291 -43.721  1.00  0.00    -0.270 OA
ATOM      3  N   UNL     1       4.474 -15.438 -42.532  1.00  0.00    -0.319 N 
ATOM      4  H   UNL     1       3.886 -15.171 -41.746  1.00  0.00     0.170 HD
ENDROOT
BRANCH   1   5
ATOM      5  C   UNL     1       4.175 -17.652 -41.662  1.00  0.00     0.068 C 
ATOM      6  C   UNL     1       2.862 -17.798 -41.419  1.00  0.00    -0.006 C 
BRANCH   6   7
ATOM      7  C   UNL     1       2.166 -18.606 -40.353  1.00  0.00     0.111 C 
BRANCH   7   8
ATOM      8  N   UNL     1       1.406 -19.806 -40.670  1.00  0.00    -0.306 NA
ATOM      9  C   UNL     1       2.109 -20.779 -41.492  1.00  0.00     0.105 C 
ATOM     10  C   UNL     1       0.035 -19.572 -41.094  1.00  0.00     0.105 C 
ENDBRANCH   7   8
ENDBRANCH   6   7
ENDBRANCH   1   5
BRANCH   3  11
ATOM     11  C   UNL     1       4.884 -14.352 -43.334  1.00  0.00     0.085 A 
ATOM     12  C   UNL     1       6.139 -13.754 -43.238  1.00  0.00     0.044 A 
ATOM     13  C   UNL     1       3.961 -13.854 -44.264  1.00  0.00     0.145 A 
ATOM     14  C   UNL     1       6.490 -12.656 -44.066  1.00  0.00     0.045 A 
ATOM     15  C   UNL     1       4.304 -12.761 -45.063  1.00  0.00     0.077 A 
ATOM     16  C   UNL     1       7.730 -11.985 -44.043  1.00  0.00     0.141 A 
ATOM     17  C   UNL     1       5.551 -12.158 -44.979  1.00  0.00     0.080 A 
ATOM     18  N   UNL     1       7.976 -10.926 -44.834  1.00  0.00    -0.219 NA
ATOM     19  N   UNL     1       5.797 -11.117 -45.778  1.00  0.00    -0.236 NA
ATOM     20  C   UNL     1       7.000 -10.546 -45.663  1.00  0.00     0.224 A 
BRANCH  13  21
ATOM     21  O   UNL     1       2.738 -14.482 -44.294  1.00  0.00    -0.486 OA
BRANCH  21  22
ATOM     22  C   UNL     1       1.700 -13.847 -45.057  1.00  0.00     0.201 C 
ATOM     23  C   UNL     1       1.161 -14.875 -46.032  1.00  0.00     0.076 C 
ATOM     24  C   UNL     1       0.475 -13.567 -44.193  1.00  0.00     0.205 C 
ATOM     25  C   UNL     1       0.200 -15.661 -45.169  1.00  0.00     0.164 C 
ATOM     26  O   UNL     1      -0.376 -14.727 -44.251  1.00  0.00    -0.377 OA
ENDBRANCH  21  22
ENDBRANCH  13  21
BRANCH  16  27
ATOM     27  N   UNL     1       8.745 -12.436 -43.155  1.00  0.00    -0.340 N 
ATOM     28  H   UNL     1       8.319 -12.733 -42.282  1.00  0.00     0.168 HD
BRANCH  27  29
ATOM     29  C   UNL     1       9.910 -13.173 -43.460  1.00  0.00     0.041 A 
ATOM     30  C   UNL     1      10.160 -13.533 -44.795  1.00  0.00     0.029 A 
ATOM     31  C   UNL     1      10.784 -13.644 -42.469  1.00  0.00     0.049 A 
ATOM     32  C   UNL     1      11.280 -14.297 -45.136  1.00  0.00     0.043 A 
ATOM     33  C   UNL     1      11.904 -14.408 -42.807  1.00  0.00     0.078 A 
ATOM     34  C   UNL     1      12.147 -14.729 -44.138  1.00  0.00     0.141 A 
ATOM     35  Cl  UNL     1      12.966 -14.957 -41.566  1.00  0.00    -0.081 Cl
ATOM     36  F   UNL     1      13.216 -15.460 -44.486  1.00  0.00    -0.205 F 
ENDBRANCH  27  29
ENDBRANCH  16  27
ENDBRANCH   3  11
TORSDOF 8
ENDMDL
MODEL 15
REMARK minimizedAffinity -7.5167141
REMARK minimizedRMSD -1
REMARK SMILES CN(C)C/C=C/C(=O)Nc1cc2c(Nc3ccc(F)c(Cl)c3)ncnc2cc1O[C@H]1CCOC1
REMARK SMILES IDX 7 1 8 2 9 3 6 5 5 6 4 7 2 8 1 9 3 10 10 11 11 12 28 13 12 14
REMARK SMILES IDX 27 15 13 16 26 17 23 18 25 19 24 20 29 21 30 22 31 23 34 24
REMARK SMILES IDX 32 25 33 26 14 27 15 29 16 30 22 31 17 32 20 33 18 34 21 35
REMARK SMILES IDX 19 36
REMARK H PARENT 9 4 14 28
ROOT
ATOM      1  C   UNL     1       0.795 -11.479 -43.517  1.00  0.00     0.248 C 
ATOM      2  O   UNL     1       1.986 -11.268 -43.714  1.00  0.00    -0.270 OA
ATOM      3  N   UNL     1      -0.252 -10.628 -43.770  1.00  0.00    -0.319 N 
ATOM      4  H   UNL     1      -1.197 -10.999 -43.709  1.00  0.00     0.170 HD
ENDROOT
BRANCH   1   5
ATOM      5  C   UNL     1       0.373 -12.821 -43.030  1.00  0.00     0.068 C 
ATOM      6  C   UNL     1       0.760 -13.968 -43.614  1.00  0.00    -0.006 C 
BRANCH   6   7
ATOM      7  C   UNL     1       0.393 -15.390 -43.274  1.00  0.00     0.111 C 
BRANCH   7   8
ATOM      8  N   UNL     1      -0.793 -16.030 -43.824  1.00  0.00    -0.306 NA
ATOM      9  C   UNL     1      -1.358 -17.088 -43.001  1.00  0.00     0.105 C 
ATOM     10  C   UNL     1      -0.709 -16.376 -45.234  1.00  0.00     0.105 C 
ENDBRANCH   7   8
ENDBRANCH   6   7
ENDBRANCH   1   5
BRANCH   3  11
ATOM     11  C   UNL     1      -0.192  -9.284 -44.195  1.00  0.00     0.085 A 
ATOM     12  C   UNL     1       0.937  -8.709 -44.776  1.00  0.00     0.044 A 
ATOM     13  C   UNL     1      -1.336  -8.496 -44.004  1.00  0.00     0.145 A 
ATOM     14  C   UNL     1       0.940  -7.347 -45.175  1.00  0.00     0.045 A 
ATOM     15  C   UNL     1      -1.322  -7.152 -44.380  1.00  0.00     0.077 A 
ATOM     16  C   UNL     1       2.030  -6.677 -45.768  1.00  0.00     0.141 A 
ATOM     17  C   UNL     1      -0.205  -6.567 -44.962  1.00  0.00     0.080 A 
ATOM     18  N   UNL     1       1.970  -5.371 -46.085  1.00  0.00    -0.219 NA
ATOM     19  N   UNL     1      -0.274  -5.275 -45.290  1.00  0.00    -0.236 NA
ATOM     20  C   UNL     1       0.822  -4.736 -45.833  1.00  0.00     0.224 A 
BRANCH  13  21
ATOM     21  O   UNL     1      -2.407  -9.124 -43.412  1.00  0.00    -0.486 OA
BRANCH  21  22
ATOM     22  C   UNL     1      -3.680  -8.987 -44.063  1.00  0.00     0.201 C 
ATOM     23  C   UNL     1      -4.300 -10.368 -44.140  1.00  0.00     0.076 C 
ATOM     24  C   UNL     1      -4.676  -8.249 -43.174  1.00  0.00     0.205 C 
ATOM     25  C   UNL     1      -4.897 -10.528 -42.760  1.00  0.00     0.164 C 
ATOM     26  O   UNL     1      -5.347  -9.230 -42.361  1.00  0.00    -0.377 OA
ENDBRANCH  21  22
ENDBRANCH  13  21
BRANCH  16  27
ATOM     27  N   UNL     1       3.225  -7.399 -46.032  1.00  0.00    -0.340 N 
ATOM     28  H   UNL     1       3.590  -7.126 -46.940  1.00  0.00     0.168 HD
BRANCH  27  29
ATOM     29  C   UNL     1       4.251  -7.752 -45.128  1.00  0.00     0.041 A 
ATOM     30  C   UNL     1       4.217  -7.237 -43.822  1.00  0.00     0.029 A 
ATOM     31  C   UNL     1       5.359  -8.524 -45.511  1.00  0.00     0.049 A 
ATOM     32  C   UNL     1       5.234  -7.527 -42.908  1.00  0.00     0.043 A 
ATOM     33  C   UNL     1       6.377  -8.815 -44.599  1.00  0.00     0.078 A 
ATOM     34  C   UNL     1       6.308  -8.317 -43.302  1.00  0.00     0.141 A 
ATOM     35  Cl  UNL     1       7.715  -9.780 -45.097  1.00  0.00    -0.081 Cl
ATOM     36  F   UNL     1       7.273  -8.585 -42.410  1.00  0.00    -0.205 F 
ENDBRANCH  27  29
ENDBRANCH  16  27
ENDBRANCH   3  11
TORSDOF 8
ENDMDL
MODEL 16
REMARK minimizedAffinity -7.44577789
REMARK minimizedRMSD -1
REMARK SMILES CN(C)C/C=C/C(=O)Nc1cc2c(Nc3ccc(F)c(Cl)c3)ncnc2cc1O[C@H]1CCOC1
REMARK SMILES IDX 7 1 8 2 9 3 6 5 5 6 4 7 2 8 1 9 3 10 10 11 11 12 28 13 12 14
REMARK SMILES IDX 27 15 13 16 26 17 23 18 25 19 24 20 29 21 30 22 31 23 34 24
REMARK SMILES IDX 32 25 33 26 14 27 15 29 16 30 22 31 17 32 20 33 18 34 21 35
REMARK SMILES IDX 19 36
REMARK H PARENT 9 4 14 28
ROOT
ATOM      1  C   UNL     1       5.094 -15.794 -44.889  1.00  0.00     0.248 C 
ATOM      2  O   UNL     1       5.090 -15.685 -43.669  1.00  0.00    -0.270 OA
ATOM      3  N   UNL     1       5.552 -16.858 -45.626  1.00  0.00    -0.319 N 
ATOM      4  H   UNL     1       5.342 -16.879 -46.621  1.00  0.00     0.170 HD
ENDROOT
BRANCH   1   5
ATOM      5  C   UNL     1       4.469 -14.721 -45.711  1.00  0.00     0.068 C 
ATOM      6  C   UNL     1       3.413 -14.001 -45.296  1.00  0.00    -0.006 C 
BRANCH   6   7
ATOM      7  C   UNL     1       2.645 -12.921 -46.014  1.00  0.00     0.111 C 
BRANCH   7   8
ATOM      8  N   UNL     1       1.444 -12.324 -45.446  1.00  0.00    -0.306 NA
ATOM      9  C   UNL     1       1.230 -12.601 -44.034  1.00  0.00     0.105 C 
ATOM     10  C   UNL     1       0.244 -12.466 -46.254  1.00  0.00     0.105 C 
ENDBRANCH   7   8
ENDBRANCH   6   7
ENDBRANCH   1   5
BRANCH   3  11
ATOM     11  C   UNL     1       6.227 -18.007 -45.161  1.00  0.00     0.085 A 
ATOM     12  C   UNL     1       5.596 -19.054 -44.493  1.00  0.00     0.044 A 
ATOM     13  C   UNL     1       7.610 -18.073 -45.381  1.00  0.00     0.145 A 
ATOM     14  C   UNL     1       6.332 -20.180 -44.039  1.00  0.00     0.045 A 
ATOM     15  C   UNL     1       8.333 -19.174 -44.916  1.00  0.00     0.077 A 
ATOM     16  C   UNL     1       5.785 -21.286 -43.356  1.00  0.00     0.141 A 
ATOM     17  C   UNL     1       7.716 -20.225 -44.251  1.00  0.00     0.080 A 
ATOM     18  N   UNL     1       6.555 -22.300 -42.922  1.00  0.00    -0.219 NA
ATOM     19  N   UNL     1       8.481 -21.238 -43.837  1.00  0.00    -0.236 NA
ATOM     20  C   UNL     1       7.862 -22.228 -43.186  1.00  0.00     0.224 A 
BRANCH  13  21
ATOM     21  O   UNL     1       8.169 -16.999 -46.032  1.00  0.00    -0.486 OA
BRANCH  21  22
ATOM     22  C   UNL     1       8.900 -16.060 -45.228  1.00  0.00     0.201 C 
ATOM     23  C   UNL     1      10.368 -16.217 -45.570  1.00  0.00     0.076 C 
ATOM     24  C   UNL     1       8.629 -14.626 -45.673  1.00  0.00     0.205 C 
ATOM     25  C   UNL     1      10.491 -15.399 -46.836  1.00  0.00     0.164 C 
ATOM     26  O   UNL     1       9.590 -14.296 -46.693  1.00  0.00    -0.377 OA
ENDBRANCH  21  22
ENDBRANCH  13  21
BRANCH  16  27
ATOM     27  N   UNL     1       4.385 -21.326 -43.112  1.00  0.00    -0.340 N 
ATOM     28  H   UNL     1       4.048 -22.274 -43.246  1.00  0.00     0.168 HD
BRANCH  27  29
ATOM     29  C   UNL     1       3.649 -20.630 -42.128  1.00  0.00     0.041 A 
ATOM     30  C   UNL     1       4.334 -19.815 -41.211  1.00  0.00     0.029 A 
ATOM     31  C   UNL     1       2.264 -20.792 -41.970  1.00  0.00     0.049 A 
ATOM     32  C   UNL     1       3.649 -19.142 -40.196  1.00  0.00     0.043 A 
ATOM     33  C   UNL     1       1.577 -20.120 -40.955  1.00  0.00     0.078 A 
ATOM     34  C   UNL     1       2.272 -19.297 -40.076  1.00  0.00     0.141 A 
ATOM     35  Cl  UNL     1      -0.126 -20.329 -40.798  1.00  0.00    -0.081 Cl
ATOM     36  F   UNL     1       1.633 -18.641 -39.096  1.00  0.00    -0.205 F 
ENDBRANCH  27  29
ENDBRANCH  16  27
ENDBRANCH   3  11
TORSDOF 8
ENDMDL
MODEL 17
REMARK minimizedAffinity -7.43782854
REMARK minimizedRMSD -1
REMARK SMILES CN(C)C/C=C/C(=O)Nc1cc2c(Nc3ccc(F)c(Cl)c3)ncnc2cc1O[C@H]1CCOC1
REMARK SMILES IDX 7 1 8 2 9 3 6 5 5 6 4 7 2 8 1 9 3 10 10 11 11 12 28 13 12 14
REMARK SMILES IDX 27 15 13 16 26 17 23 18 25 19 24 20 29 21 30 22 31 23 34 24
REMARK SMILES IDX 32 25 33 26 14 27 15 29 16 30 22 31 17 32 20 33 18 34 21 35
REMARK SMILES IDX 19 36
REMARK H PARENT 9 4 14 28
ROOT
ATOM      1  C   UNL     1       2.350 -13.694 -44.456  1.00  0.00     0.248 C 
ATOM      2  O   UNL     1       2.825 -13.640 -43.327  1.00  0.00    -0.270 OA
ATOM      3  N   UNL     1       2.620 -12.859 -45.511  1.00  0.00    -0.319 N 
ATOM      4  H   UNL     1       2.277 -13.122 -46.432  1.00  0.00     0.170 HD
ENDROOT
BRANCH   1   5
ATOM      5  C   UNL     1       1.437 -14.819 -44.800  1.00  0.00     0.068 C 
ATOM      6  C   UNL     1       0.459 -15.245 -43.983  1.00  0.00    -0.006 C 
BRANCH   6   7
ATOM      7  C   UNL     1      -0.513 -16.384 -44.162  1.00  0.00     0.111 C 
BRANCH   7   8
ATOM      8  N   UNL     1      -1.254 -16.945 -43.041  1.00  0.00    -0.306 NA
ATOM      9  C   UNL     1      -0.641 -18.111 -42.423  1.00  0.00     0.105 C 
ATOM     10  C   UNL     1      -2.684 -17.089 -43.258  1.00  0.00     0.105 C 
ENDBRANCH   7   8
ENDBRANCH   6   7
ENDBRANCH   1   5
BRANCH   3  11
ATOM     11  C   UNL     1       3.405 -11.686 -45.508  1.00  0.00     0.085 A 
ATOM     12  C   UNL     1       4.785 -11.683 -45.312  1.00  0.00     0.044 A 
ATOM     13  C   UNL     1       2.741 -10.467 -45.703  1.00  0.00     0.145 A 
ATOM     14  C   UNL     1       5.519 -10.468 -45.309  1.00  0.00     0.045 A 
ATOM     15  C   UNL     1       3.466  -9.273 -45.681  1.00  0.00     0.077 A 
ATOM     16  C   UNL     1       6.913 -10.362 -45.119  1.00  0.00     0.141 A 
ATOM     17  C   UNL     1       4.841  -9.256 -45.489  1.00  0.00     0.080 A 
ATOM     18  N   UNL     1       7.534  -9.170 -45.092  1.00  0.00    -0.219 NA
ATOM     19  N   UNL     1       5.456  -8.071 -45.479  1.00  0.00    -0.236 NA
ATOM     20  C   UNL     1       6.776  -8.085 -45.275  1.00  0.00     0.224 A 
BRANCH  13  21
ATOM     21  O   UNL     1       1.380 -10.544 -45.876  1.00  0.00    -0.486 OA
BRANCH  21  22
ATOM     22  C   UNL     1       0.560  -9.969 -44.845  1.00  0.00     0.201 C 
ATOM     23  C   UNL     1      -0.519  -9.152 -45.527  1.00  0.00     0.076 C 
ATOM     24  C   UNL     1      -0.262 -11.039 -44.136  1.00  0.00     0.205 C 
ATOM     25  C   UNL     1      -1.533 -10.210 -45.900  1.00  0.00     0.164 C 
ATOM     26  O   UNL     1      -1.502 -11.186 -44.854  1.00  0.00    -0.377 OA
ENDBRANCH  21  22
ENDBRANCH  13  21
BRANCH  16  27
ATOM     27  N   UNL     1       7.679 -11.546 -44.944  1.00  0.00    -0.340 N 
ATOM     28  H   UNL     1       8.301 -11.665 -45.738  1.00  0.00     0.168 HD
BRANCH  27  29
ATOM     29  C   UNL     1       8.231 -12.062 -43.751  1.00  0.00     0.041 A 
ATOM     30  C   UNL     1       9.398 -12.841 -43.818  1.00  0.00     0.029 A 
ATOM     31  C   UNL     1       7.607 -11.907 -42.504  1.00  0.00     0.049 A 
ATOM     32  C   UNL     1       9.954 -13.405 -42.667  1.00  0.00     0.043 A 
ATOM     33  C   UNL     1       8.160 -12.470 -41.351  1.00  0.00     0.078 A 
ATOM     34  C   UNL     1       9.332 -13.214 -41.438  1.00  0.00     0.141 A 
ATOM     35  Cl  UNL     1       7.376 -12.246 -39.833  1.00  0.00    -0.081 Cl
ATOM     36  F   UNL     1       9.882 -13.763 -40.345  1.00  0.00    -0.205 F 
ENDBRANCH  27  29
ENDBRANCH  16  27
ENDBRANCH   3  11
TORSDOF 8
ENDMDL
MODEL 18
REMARK minimizedAffinity -7.41069508
REMARK minimizedRMSD -1
REMARK SMILES CN(C)C/C=C/C(=O)Nc1cc2c(Nc3ccc(F)c(Cl)c3)ncnc2cc1O[C@H]1CCOC1
REMARK SMILES IDX 7 1 8 2 9 3 6 5 5 6 4 7 2 8 1 9 3 10 10 11 11 12 28 13 12 14
REMARK SMILES IDX 27 15 13 16 26 17 23 18 25 19 24 20 29 21 30 22 31 23 34 24
REMARK SMILES IDX 32 25 33 26 14 27 15 29 16 30 22 31 17 32 20 33 18 34 21 35
REMARK SMILES IDX 19 36
REMARK H PARENT 9 4 14 28
ROOT
ATOM      1  C   UNL     1       2.074 -12.481 -44.555  1.00  0.00     0.248 C 
ATOM      2  O   UNL     1       1.701 -12.410 -43.389  1.00  0.00    -0.270 OA
ATOM      3  N   UNL     1       2.298 -11.439 -45.420  1.00  0.00    -0.319 N 
ATOM      4  H   UNL     1       2.761 -11.639 -46.303  1.00  0.00     0.170 HD
ENDROOT
BRANCH   1   5
ATOM      5  C   UNL     1       2.418 -13.815 -45.121  1.00  0.00     0.068 C 
ATOM      6  C   UNL     1       3.681 -14.261 -45.230  1.00  0.00    -0.006 C 
BRANCH   6   7
ATOM      7  C   UNL     1       4.195 -15.554 -45.811  1.00  0.00     0.111 C 
BRANCH   7   8
ATOM      8  N   UNL     1       5.463 -16.133 -45.393  1.00  0.00    -0.306 NA
ATOM      9  C   UNL     1       6.637 -15.332 -45.703  1.00  0.00     0.105 C 
ATOM     10  C   UNL     1       5.627 -17.545 -45.703  1.00  0.00     0.105 C 
ENDBRANCH   7   8
ENDBRANCH   6   7
ENDBRANCH   1   5
BRANCH   3  11
ATOM     11  C   UNL     1       2.037 -10.068 -45.210  1.00  0.00     0.085 A 
ATOM     12  C   UNL     1       0.776  -9.493 -45.351  1.00  0.00     0.044 A 
ATOM     13  C   UNL     1       3.121  -9.254 -44.851  1.00  0.00     0.145 A 
ATOM     14  C   UNL     1       0.578  -8.104 -45.135  1.00  0.00     0.045 A 
ATOM     15  C   UNL     1       2.925  -7.885 -44.659  1.00  0.00     0.077 A 
ATOM     16  C   UNL     1      -0.656  -7.431 -45.254  1.00  0.00     0.141 A 
ATOM     17  C   UNL     1       1.674  -7.300 -44.794  1.00  0.00     0.080 A 
ATOM     18  N   UNL     1      -0.757  -6.103 -45.071  1.00  0.00    -0.219 NA
ATOM     19  N   UNL     1       1.574  -5.984 -44.595  1.00  0.00    -0.236 NA
ATOM     20  C   UNL     1       0.360  -5.446 -44.749  1.00  0.00     0.224 A 
BRANCH  13  21
ATOM     21  O   UNL     1       4.338  -9.886 -44.744  1.00  0.00    -0.486 OA
BRANCH  21  22
ATOM     22  C   UNL     1       5.501  -9.117 -45.089  1.00  0.00     0.201 C 
ATOM     23  C   UNL     1       6.631  -9.577 -44.190  1.00  0.00     0.076 C 
ATOM     24  C   UNL     1       6.026  -9.501 -46.468  1.00  0.00     0.205 C 
ATOM     25  C   UNL     1       7.111 -10.827 -44.894  1.00  0.00     0.164 C 
ATOM     26  O   UNL     1       6.958 -10.585 -46.295  1.00  0.00    -0.377 OA
ENDBRANCH  21  22
ENDBRANCH  13  21
BRANCH  16  27
ATOM     27  N   UNL     1      -1.821  -8.176 -45.584  1.00  0.00    -0.340 N 
ATOM     28  H   UNL     1      -1.588  -8.873 -46.284  1.00  0.00     0.168 HD
BRANCH  27  29
ATOM     29  C   UNL     1      -2.855  -8.607 -44.724  1.00  0.00     0.041 A 
ATOM     30  C   UNL     1      -3.144  -9.979 -44.637  1.00  0.00     0.029 A 
ATOM     31  C   UNL     1      -3.672  -7.709 -44.020  1.00  0.00     0.049 A 
ATOM     32  C   UNL     1      -4.186 -10.445 -43.831  1.00  0.00     0.043 A 
ATOM     33  C   UNL     1      -4.715  -8.172 -43.214  1.00  0.00     0.078 A 
ATOM     34  C   UNL     1      -4.965  -9.537 -43.121  1.00  0.00     0.141 A 
ATOM     35  Cl  UNL     1      -5.689  -7.043 -42.350  1.00  0.00    -0.081 Cl
ATOM     36  F   UNL     1      -5.959 -10.004 -42.352  1.00  0.00    -0.205 F 
ENDBRANCH  27  29
ENDBRANCH  16  27
ENDBRANCH   3  11
TORSDOF 8
ENDMDL
MODEL 19
REMARK minimizedAffinity -7.37373257
REMARK minimizedRMSD -1
REMARK SMILES CN(C)C/C=C/C(=O)Nc1cc2c(Nc3ccc(F)c(Cl)c3)ncnc2cc1O[C@H]1CCOC1
REMARK SMILES IDX 7 1 8 2 9 3 6 5 5 6 4 7 2 8 1 9 3 10 10 11 11 12 28 13 12 14
REMARK SMILES IDX 27 15 13 16 26 17 23 18 25 19 24 20 29 21 30 22 31 23 34 24
REMARK SMILES IDX 32 25 33 26 14 27 15 29 16 30 22 31 17 32 20 33 18 34 21 35
REMARK SMILES IDX 19 36
REMARK H PARENT 9 4 14 28
ROOT
ATOM      1  C   UNL     1       4.433 -14.956 -44.446  1.00  0.00     0.248 C 
ATOM      2  O   UNL     1       4.036 -14.812 -43.296  1.00  0.00    -0.270 OA
ATOM      3  N   UNL     1       5.455 -15.766 -44.876  1.00  0.00    -0.319 N 
ATOM      4  H   UNL     1       5.566 -15.908 -45.877  1.00  0.00     0.170 HD
ENDROOT
BRANCH   1   5
ATOM      5  C   UNL     1       3.711 -14.265 -45.550  1.00  0.00     0.068 C 
ATOM      6  C   UNL     1       2.414 -13.920 -45.474  1.00  0.00    -0.006 C 
BRANCH   6   7
ATOM      7  C   UNL     1       1.534 -13.261 -46.505  1.00  0.00     0.111 C 
BRANCH   7   8
ATOM      8  N   UNL     1       0.088 -13.434 -46.505  1.00  0.00    -0.306 NA
ATOM      9  C   UNL     1      -0.374 -14.736 -46.961  1.00  0.00     0.105 C 
ATOM     10  C   UNL     1      -0.664 -12.323 -47.065  1.00  0.00     0.105 C 
ENDBRANCH   7   8
ENDBRANCH   6   7
ENDBRANCH   1   5
BRANCH   3  11
ATOM     11  C   UNL     1       6.353 -16.519 -44.090  1.00  0.00     0.085 A 
ATOM     12  C   UNL     1       6.035 -17.752 -43.525  1.00  0.00     0.044 A 
ATOM     13  C   UNL     1       7.625 -15.974 -43.866  1.00  0.00     0.145 A 
ATOM     14  C   UNL     1       6.979 -18.458 -42.733  1.00  0.00     0.045 A 
ATOM     15  C   UNL     1       8.543 -16.663 -43.071  1.00  0.00     0.077 A 
ATOM     16  C   UNL     1       6.752 -19.707 -42.120  1.00  0.00     0.141 A 
ATOM     17  C   UNL     1       8.240 -17.893 -42.504  1.00  0.00     0.080 A 
ATOM     18  N   UNL     1       7.684 -20.298 -41.351  1.00  0.00    -0.219 NA
ATOM     19  N   UNL     1       9.174 -18.484 -41.755  1.00  0.00    -0.236 NA
ATOM     20  C   UNL     1       8.849 -19.659 -41.209  1.00  0.00     0.224 A 
BRANCH  13  21
ATOM     21  O   UNL     1       7.865 -14.749 -44.442  1.00  0.00    -0.486 OA
BRANCH  21  22
ATOM     22  C   UNL     1       8.300 -13.694 -43.568  1.00  0.00     0.201 C 
ATOM     23  C   UNL     1       8.479 -12.450 -44.414  1.00  0.00     0.076 C 
ATOM     24  C   UNL     1       7.183 -13.268 -42.621  1.00  0.00     0.205 C 
ATOM     25  C   UNL     1       7.063 -11.929 -44.520  1.00  0.00     0.164 C 
ATOM     26  O   UNL     1       6.427 -12.232 -43.275  1.00  0.00    -0.377 OA
ENDBRANCH  21  22
ENDBRANCH  13  21
BRANCH  16  27
ATOM     27  N   UNL     1       5.502 -20.356 -42.313  1.00  0.00    -0.340 N 
ATOM     28  H   UNL     1       5.655 -21.352 -42.436  1.00  0.00     0.168 HD
BRANCH  27  29
ATOM     29  C   UNL     1       4.267 -20.079 -41.688  1.00  0.00     0.041 A 
ATOM     30  C   UNL     1       4.233 -19.178 -40.611  1.00  0.00     0.029 A 
ATOM     31  C   UNL     1       3.079 -20.739 -42.040  1.00  0.00     0.049 A 
ATOM     32  C   UNL     1       3.039 -18.906 -39.937  1.00  0.00     0.043 A 
ATOM     33  C   UNL     1       1.885 -20.470 -41.367  1.00  0.00     0.078 A 
ATOM     34  C   UNL     1       1.870 -19.553 -40.322  1.00  0.00     0.141 A 
ATOM     35  Cl  UNL     1       0.441 -21.287 -41.835  1.00  0.00    -0.081 Cl
ATOM     36  F   UNL     1       0.735 -19.277 -39.663  1.00  0.00    -0.205 F 
ENDBRANCH  27  29
ENDBRANCH  16  27
ENDBRANCH   3  11
TORSDOF 8
ENDMDL
MODEL 20
REMARK minimizedAffinity -7.35864878
REMARK minimizedRMSD -1
REMARK SMILES CN(C)C/C=C/C(=O)Nc1cc2c(Nc3ccc(F)c(Cl)c3)ncnc2cc1O[C@H]1CCOC1
REMARK SMILES IDX 7 1 8 2 9 3 6 5 5 6 4 7 2 8 1 9 3 10 10 11 11 12 28 13 12 14
REMARK SMILES IDX 27 15 13 16 26 17 23 18 25 19 24 20 29 21 30 22 31 23 34 24
REMARK SMILES IDX 32 25 33 26 14 27 15 29 16 30 22 31 17 32 20 33 18 34 21 35
REMARK SMILES IDX 19 36
REMARK H PARENT 9 4 14 28
ROOT
ATOM      1  C   UNL     1      -2.354  -9.667 -45.532  1.00  0.00     0.248 C 
ATOM      2  O   UNL     1      -2.195  -9.746 -46.745  1.00  0.00    -0.270 OA
ATOM      3  N   UNL     1      -1.437  -9.964 -44.554  1.00  0.00    -0.319 N 
ATOM      4  H   UNL     1      -1.653  -9.695 -43.597  1.00  0.00     0.170 HD
ENDROOT
BRANCH   1   5
ATOM      5  C   UNL     1      -3.633  -9.116 -45.008  1.00  0.00     0.068 C 
ATOM      6  C   UNL     1      -4.242  -8.042 -45.540  1.00  0.00    -0.006 C 
BRANCH   6   7
ATOM      7  C   UNL     1      -5.504  -7.341 -45.107  1.00  0.00     0.111 C 
BRANCH   7   8
ATOM      8  N   UNL     1      -5.503  -6.338 -44.051  1.00  0.00    -0.306 NA
ATOM      9  C   UNL     1      -4.364  -5.434 -44.063  1.00  0.00     0.105 C 
ATOM     10  C   UNL     1      -5.831  -6.840 -42.726  1.00  0.00     0.105 C 
ENDBRANCH   7   8
ENDBRANCH   6   7
ENDBRANCH   1   5
BRANCH   3  11
ATOM     11  C   UNL     1      -0.157 -10.536 -44.712  1.00  0.00     0.085 A 
ATOM     12  C   UNL     1       0.058 -11.897 -44.921  1.00  0.00     0.044 A 
ATOM     13  C   UNL     1       0.947  -9.674 -44.641  1.00  0.00     0.145 A 
ATOM     14  C   UNL     1       1.372 -12.416 -45.063  1.00  0.00     0.045 A 
ATOM     15  C   UNL     1       2.238 -10.192 -44.762  1.00  0.00     0.077 A 
ATOM     16  C   UNL     1       1.691 -13.773 -45.275  1.00  0.00     0.141 A 
ATOM     17  C   UNL     1       2.466 -11.545 -44.972  1.00  0.00     0.080 A 
ATOM     18  N   UNL     1       2.965 -14.195 -45.362  1.00  0.00    -0.219 NA
ATOM     19  N   UNL     1       3.731 -11.958 -45.074  1.00  0.00    -0.236 NA
ATOM     20  C   UNL     1       3.921 -13.268 -45.260  1.00  0.00     0.224 A 
BRANCH  13  21
ATOM     21  O   UNL     1       0.661  -8.348 -44.419  1.00  0.00    -0.486 OA
BRANCH  21  22
ATOM     22  C   UNL     1       0.843  -7.451 -45.526  1.00  0.00     0.201 C 
ATOM     23  C   UNL     1      -0.380  -6.557 -45.590  1.00  0.00     0.076 C 
ATOM     24  C   UNL     1       1.950  -6.442 -45.241  1.00  0.00     0.205 C 
ATOM     25  C   UNL     1      -0.065  -5.510 -44.545  1.00  0.00     0.164 C 
ATOM     26  O   UNL     1       1.351  -5.305 -44.592  1.00  0.00    -0.377 OA
ENDBRANCH  21  22
ENDBRANCH  13  21
BRANCH  16  27
ATOM     27  N   UNL     1       0.638 -14.721 -45.393  1.00  0.00    -0.340 N 
ATOM     28  H   UNL     1       0.660 -15.134 -46.321  1.00  0.00     0.168 HD
BRANCH  27  29
ATOM     29  C   UNL     1       0.159 -15.622 -44.417  1.00  0.00     0.041 A 
ATOM     30  C   UNL     1       0.970 -15.924 -43.311  1.00  0.00     0.029 A 
ATOM     31  C   UNL     1      -1.060 -16.303 -44.555  1.00  0.00     0.049 A 
ATOM     32  C   UNL     1       0.552 -16.842 -42.343  1.00  0.00     0.043 A 
ATOM     33  C   UNL     1      -1.480 -17.221 -43.589  1.00  0.00     0.078 A 
ATOM     34  C   UNL     1      -0.673 -17.484 -42.487  1.00  0.00     0.141 A 
ATOM     35  Cl  UNL     1      -2.991 -18.028 -43.780  1.00  0.00    -0.081 Cl
ATOM     36  F   UNL     1      -1.056 -18.360 -41.547  1.00  0.00    -0.205 F 
ENDBRANCH  27  29
ENDBRANCH  16  27
ENDBRANCH   3  11
TORSDOF 8
ENDMDL
