MODEL 1
REMARK minimizedAffinity -8.41392612
REMARK minimizedRMSD -1
REMARK SMILES CNC(=O)c1ccccc1Sc1ccc2c(/C=C/c3ccccn3)n[nH]c2c1
REMARK SMILES IDX 11 1 10 2 5 3 6 4 7 5 9 6 8 7 3 8 2 9 4 10 1 11 12 13 13 14
REMARK SMILES IDX 28 15 14 16 27 17 15 18 26 19 16 20 25 21 17 23 18 24 19 25
REMARK SMILES IDX 20 26 24 27 21 28 23 29 22 30
REMARK H PARENT 2 12 26 22
ROOT
ATOM      1  S   UNL     1       8.801 -14.695 -42.817  1.00  0.00    -0.089 SA
ENDROOT
BRANCH   1   2
ATOM      2  C   UNL     1       8.184 -13.019 -42.669  1.00  0.00     0.025 A 
ATOM      3  C   UNL     1       8.043 -12.336 -41.448  1.00  0.00     0.053 A 
ATOM      4  C   UNL     1       7.610 -11.001 -41.433  1.00  0.00     0.015 A 
ATOM      5  C   UNL     1       7.285 -10.349 -42.623  1.00  0.00     0.001 A 
ATOM      6  C   UNL     1       7.848 -12.349 -43.857  1.00  0.00     0.016 A 
ATOM      7  C   UNL     1       7.399 -11.027 -43.834  1.00  0.00     0.001 A 
BRANCH   3   8
ATOM      8  C   UNL     1       8.359 -12.932 -40.127  1.00  0.00     0.252 C 
ATOM      9  N   UNL     1       7.288 -13.176 -39.296  1.00  0.00    -0.355 N 
ATOM     10  O   UNL     1       9.527 -13.153 -39.825  1.00  0.00    -0.269 OA
ATOM     11  C   UNL     1       7.458 -13.849 -38.035  1.00  0.00     0.143 C 
ATOM     12  H   UNL     1       6.352 -13.100 -39.678  1.00  0.00     0.163 HD
ENDBRANCH   3   8
ENDBRANCH   1   2
BRANCH   1  13
ATOM     13  C   UNL     1       7.382 -15.614 -42.233  1.00  0.00     0.014 A 
ATOM     14  C   UNL     1       6.192 -15.571 -42.967  1.00  0.00     0.016 A 
ATOM     15  C   UNL     1       7.455 -16.352 -41.043  1.00  0.00     0.043 A 
ATOM     16  C   UNL     1       5.055 -16.275 -42.544  1.00  0.00     0.014 A 
ATOM     17  C   UNL     1       6.310 -17.053 -40.647  1.00  0.00     0.067 A 
ATOM     18  C   UNL     1       5.118 -17.037 -41.361  1.00  0.00     0.027 A 
ATOM     19  N   UNL     1       6.073 -17.859 -39.569  1.00  0.00    -0.277 N 
ATOM     20  C   UNL     1       4.230 -17.870 -40.613  1.00  0.00     0.093 A 
ATOM     21  N   UNL     1       4.833 -18.368 -39.523  1.00  0.00    -0.175 NA
ATOM     22  H   UNL     1       6.720 -18.106 -38.829  1.00  0.00     0.190 HD
BRANCH  20  23
ATOM     23  C   UNL     1       2.870 -18.152 -40.977  1.00  0.00     0.033 C 
ATOM     24  C   UNL     1       2.369 -19.385 -41.169  1.00  0.00     0.030 C 
BRANCH  24  25
ATOM     25  C   UNL     1       0.985 -19.697 -41.537  1.00  0.00     0.063 A 
ATOM     26  C   UNL     1       0.465 -20.989 -41.521  1.00  0.00     0.028 A 
ATOM     27  N   UNL     1       0.228 -18.617 -41.842  1.00  0.00    -0.257 NA
ATOM     28  C   UNL     1      -0.876 -21.181 -41.849  1.00  0.00     0.004 A 
ATOM     29  C   UNL     1      -1.068 -18.832 -42.159  1.00  0.00     0.111 A 
ATOM     30  C   UNL     1      -1.660 -20.082 -42.179  1.00  0.00     0.020 A 
ENDBRANCH  24  25
ENDBRANCH  20  23
ENDBRANCH   1  13
TORSDOF 5
ENDMDL
MODEL 2
REMARK minimizedAffinity -8.08071423
REMARK minimizedRMSD -1
REMARK SMILES CNC(=O)c1ccccc1Sc1ccc2c(/C=C/c3ccccn3)n[nH]c2c1
REMARK SMILES IDX 11 1 10 2 5 3 6 4 7 5 9 6 8 7 3 8 2 9 4 10 1 11 12 13 13 14
REMARK SMILES IDX 28 15 14 16 27 17 15 18 26 19 16 20 25 21 17 23 18 24 19 25
REMARK SMILES IDX 20 26 24 27 21 28 23 29 22 30
REMARK H PARENT 2 12 26 22
ROOT
ATOM      1  S   UNL     1      -3.295  -8.518 -46.075  1.00  0.00    -0.089 SA
ENDROOT
BRANCH   1   2
ATOM      2  C   UNL     1      -4.285  -8.393 -44.586  1.00  0.00     0.025 A 
ATOM      3  C   UNL     1      -4.386  -7.230 -43.802  1.00  0.00     0.053 A 
ATOM      4  C   UNL     1      -5.236  -7.205 -42.685  1.00  0.00     0.015 A 
ATOM      5  C   UNL     1      -5.962  -8.339 -42.323  1.00  0.00     0.001 A 
ATOM      6  C   UNL     1      -5.019  -9.527 -44.204  1.00  0.00     0.016 A 
ATOM      7  C   UNL     1      -5.848  -9.502 -43.080  1.00  0.00     0.001 A 
BRANCH   3   8
ATOM      8  C   UNL     1      -3.660  -5.970 -44.096  1.00  0.00     0.252 C 
ATOM      9  N   UNL     1      -2.372  -5.884 -43.618  1.00  0.00    -0.355 N 
ATOM     10  O   UNL     1      -4.227  -5.073 -44.710  1.00  0.00    -0.269 OA
ATOM     11  C   UNL     1      -1.532  -4.757 -43.930  1.00  0.00     0.143 C 
ATOM     12  H   UNL     1      -1.935  -6.721 -43.250  1.00  0.00     0.163 HD
ENDBRANCH   3   8
ENDBRANCH   1   2
BRANCH   1  13
ATOM     13  C   UNL     1      -2.009  -9.628 -45.516  1.00  0.00     0.014 A 
ATOM     14  C   UNL     1      -1.544 -10.623 -46.383  1.00  0.00     0.016 A 
ATOM     15  C   UNL     1      -1.489  -9.517 -44.220  1.00  0.00     0.043 A 
ATOM     16  C   UNL     1      -0.538 -11.517 -45.985  1.00  0.00     0.014 A 
ATOM     17  C   UNL     1      -0.480 -10.414 -43.850  1.00  0.00     0.067 A 
ATOM     18  C   UNL     1       0.009 -11.405 -44.692  1.00  0.00     0.027 A 
ATOM     19  N   UNL     1       0.226 -10.548 -42.687  1.00  0.00    -0.277 N 
ATOM     20  C   UNL     1       1.009 -12.079 -43.925  1.00  0.00     0.093 A 
ATOM     21  N   UNL     1       1.132 -11.538 -42.704  1.00  0.00    -0.175 NA
ATOM     22  H   UNL     1       0.141  -9.990 -41.845  1.00  0.00     0.190 HD
BRANCH  20  23
ATOM     23  C   UNL     1       1.794 -13.186 -44.394  1.00  0.00     0.033 C 
ATOM     24  C   UNL     1       3.002 -13.077 -44.975  1.00  0.00     0.030 C 
BRANCH  24  25
ATOM     25  C   UNL     1       3.821 -14.191 -45.458  1.00  0.00     0.063 A 
ATOM     26  C   UNL     1       3.284 -15.405 -45.880  1.00  0.00     0.028 A 
ATOM     27  N   UNL     1       5.147 -13.928 -45.519  1.00  0.00    -0.257 NA
ATOM     28  C   UNL     1       4.142 -16.392 -46.362  1.00  0.00     0.004 A 
ATOM     29  C   UNL     1       5.957 -14.903 -45.988  1.00  0.00     0.111 A 
ATOM     30  C   UNL     1       5.507 -16.140 -46.415  1.00  0.00     0.020 A 
ENDBRANCH  24  25
ENDBRANCH  20  23
ENDBRANCH   1  13
TORSDOF 5
ENDMDL
MODEL 3
REMARK minimizedAffinity -7.93211794
REMARK minimizedRMSD -1
REMARK SMILES CNC(=O)c1ccccc1Sc1ccc2c(/C=C/c3ccccn3)n[nH]c2c1
REMARK SMILES IDX 11 1 10 2 5 3 6 4 7 5 9 6 8 7 3 8 2 9 4 10 1 11 12 13 13 14
REMARK SMILES IDX 28 15 14 16 27 17 15 18 26 19 16 20 25 21 17 23 18 24 19 25
REMARK SMILES IDX 20 26 24 27 21 28 23 29 22 30
REMARK H PARENT 2 12 26 22
ROOT
ATOM      1  S   UNL     1      -1.266 -18.004 -42.490  1.00  0.00    -0.089 SA
ENDROOT
BRANCH   1   2
ATOM      2  C   UNL     1       0.254 -18.651 -41.794  1.00  0.00     0.025 A 
ATOM      3  C   UNL     1       0.478 -20.012 -41.520  1.00  0.00     0.053 A 
ATOM      4  C   UNL     1       1.725 -20.436 -41.033  1.00  0.00     0.015 A 
ATOM      5  C   UNL     1       2.739 -19.512 -40.786  1.00  0.00     0.001 A 
ATOM      6  C   UNL     1       1.285 -17.734 -41.534  1.00  0.00     0.016 A 
ATOM      7  C   UNL     1       2.516 -18.160 -41.032  1.00  0.00     0.001 A 
BRANCH   3   8
ATOM      8  C   UNL     1      -0.529 -21.078 -41.745  1.00  0.00     0.252 C 
ATOM      9  N   UNL     1      -1.712 -20.954 -41.051  1.00  0.00    -0.355 N 
ATOM     10  O   UNL     1      -0.267 -22.010 -42.497  1.00  0.00    -0.269 OA
ATOM     11  C   UNL     1      -2.805 -21.866 -41.268  1.00  0.00     0.143 C 
ATOM     12  H   UNL     1      -1.901 -20.084 -40.568  1.00  0.00     0.163 HD
ENDBRANCH   3   8
ENDBRANCH   1   2
BRANCH   1  13
ATOM     13  C   UNL     1      -0.616 -16.703 -43.530  1.00  0.00     0.014 A 
ATOM     14  C   UNL     1       0.009 -15.602 -42.934  1.00  0.00     0.016 A 
ATOM     15  C   UNL     1      -0.749 -16.773 -44.923  1.00  0.00     0.043 A 
ATOM     16  C   UNL     1       0.531 -14.557 -43.711  1.00  0.00     0.014 A 
ATOM     17  C   UNL     1      -0.212 -15.723 -45.677  1.00  0.00     0.067 A 
ATOM     18  C   UNL     1       0.422 -14.624 -45.114  1.00  0.00     0.027 A 
ATOM     19  N   UNL     1      -0.168 -15.513 -47.027  1.00  0.00    -0.277 N 
ATOM     20  C   UNL     1       0.807 -13.812 -46.226  1.00  0.00     0.093 A 
ATOM     21  N   UNL     1       0.443 -14.374 -47.387  1.00  0.00    -0.175 NA
ATOM     22  H   UNL     1      -0.532 -16.114 -47.758  1.00  0.00     0.190 HD
BRANCH  20  23
ATOM     23  C   UNL     1       1.503 -12.560 -46.124  1.00  0.00     0.033 C 
ATOM     24  C   UNL     1       2.742 -12.411 -45.624  1.00  0.00     0.030 C 
BRANCH  24  25
ATOM     25  C   UNL     1       3.472 -11.145 -45.513  1.00  0.00     0.063 A 
ATOM     26  C   UNL     1       2.858  -9.900 -45.615  1.00  0.00     0.028 A 
ATOM     27  N   UNL     1       4.792 -11.280 -45.243  1.00  0.00    -0.257 NA
ATOM     28  C   UNL     1       3.631  -8.751 -45.455  1.00  0.00     0.004 A 
ATOM     29  C   UNL     1       5.518 -10.150 -45.095  1.00  0.00     0.111 A 
ATOM     30  C   UNL     1       4.989  -8.876 -45.193  1.00  0.00     0.020 A 
ENDBRANCH  24  25
ENDBRANCH  20  23
ENDBRANCH   1  13
TORSDOF 5
ENDMDL
MODEL 4
REMARK minimizedAffinity -7.88114691
REMARK minimizedRMSD -1
REMARK SMILES CNC(=O)c1ccccc1Sc1ccc2c(/C=C/c3ccccn3)n[nH]c2c1
REMARK SMILES IDX 11 1 10 2 5 3 6 4 7 5 9 6 8 7 3 8 2 9 4 10 1 11 12 13 13 14
REMARK SMILES IDX 28 15 14 16 27 17 15 18 26 19 16 20 25 21 17 23 18 24 19 25
REMARK SMILES IDX 20 26 24 27 21 28 23 29 22 30
REMARK H PARENT 2 12 26 22
ROOT
ATOM      1  S   UNL     1      -0.364  -8.616 -44.551  1.00  0.00    -0.089 SA
ENDROOT
BRANCH   1   2
ATOM      2  C   UNL     1      -2.015  -8.519 -43.859  1.00  0.00     0.025 A 
ATOM      3  C   UNL     1      -2.764  -7.332 -43.772  1.00  0.00     0.053 A 
ATOM      4  C   UNL     1      -4.075  -7.362 -43.271  1.00  0.00     0.015 A 
ATOM      5  C   UNL     1      -4.636  -8.558 -42.828  1.00  0.00     0.001 A 
ATOM      6  C   UNL     1      -2.593  -9.714 -43.404  1.00  0.00     0.016 A 
ATOM      7  C   UNL     1      -3.892  -9.734 -42.890  1.00  0.00     0.001 A 
BRANCH   3   8
ATOM      8  C   UNL     1      -2.265  -6.006 -44.213  1.00  0.00     0.252 C 
ATOM      9  N   UNL     1      -2.412  -5.715 -45.551  1.00  0.00    -0.355 N 
ATOM     10  O   UNL     1      -1.736  -5.256 -43.400  1.00  0.00    -0.269 OA
ATOM     11  C   UNL     1      -2.065  -4.420 -46.077  1.00  0.00     0.143 C 
ATOM     12  H   UNL     1      -2.987  -6.326 -46.119  1.00  0.00     0.163 HD
ENDBRANCH   3   8
ENDBRANCH   1   2
BRANCH   1  13
ATOM     13  C   UNL     1      -0.100 -10.384 -44.509  1.00  0.00     0.014 A 
ATOM     14  C   UNL     1       0.345 -10.979 -43.323  1.00  0.00     0.016 A 
ATOM     15  C   UNL     1      -0.316 -11.162 -45.655  1.00  0.00     0.043 A 
ATOM     16  C   UNL     1       0.567 -12.362 -43.246  1.00  0.00     0.014 A 
ATOM     17  C   UNL     1      -0.096 -12.541 -45.550  1.00  0.00     0.067 A 
ATOM     18  C   UNL     1       0.336 -13.160 -44.384  1.00  0.00     0.027 A 
ATOM     19  N   UNL     1      -0.231 -13.548 -46.464  1.00  0.00    -0.277 N 
ATOM     20  C   UNL     1       0.428 -14.547 -44.717  1.00  0.00     0.093 A 
ATOM     21  N   UNL     1       0.073 -14.766 -45.991  1.00  0.00    -0.175 NA
ATOM     22  H   UNL     1      -0.533 -13.470 -47.429  1.00  0.00     0.190 HD
BRANCH  20  23
ATOM     23  C   UNL     1       0.838 -15.582 -43.809  1.00  0.00     0.033 C 
ATOM     24  C   UNL     1      -0.001 -16.412 -43.165  1.00  0.00     0.030 C 
BRANCH  24  25
ATOM     25  C   UNL     1       0.394 -17.475 -42.238  1.00  0.00     0.063 A 
ATOM     26  C   UNL     1       1.571 -17.440 -41.494  1.00  0.00     0.028 A 
ATOM     27  N   UNL     1      -0.508 -18.477 -42.116  1.00  0.00    -0.257 NA
ATOM     28  C   UNL     1       1.841 -18.480 -40.607  1.00  0.00     0.004 A 
ATOM     29  C   UNL     1      -0.220 -19.475 -41.251  1.00  0.00     0.111 A 
ATOM     30  C   UNL     1       0.930 -19.522 -40.483  1.00  0.00     0.020 A 
ENDBRANCH  24  25
ENDBRANCH  20  23
ENDBRANCH   1  13
TORSDOF 5
ENDMDL
MODEL 5
REMARK minimizedAffinity -7.82131004
REMARK minimizedRMSD -1
REMARK SMILES CNC(=O)c1ccccc1Sc1ccc2c(/C=C/c3ccccn3)n[nH]c2c1
REMARK SMILES IDX 11 1 10 2 5 3 6 4 7 5 9 6 8 7 3 8 2 9 4 10 1 11 12 13 13 14
REMARK SMILES IDX 28 15 14 16 27 17 15 18 26 19 16 20 25 21 17 23 18 24 19 25
REMARK SMILES IDX 20 26 24 27 21 28 23 29 22 30
REMARK H PARENT 2 12 26 22
ROOT
ATOM      1  S   UNL     1       5.290  -9.521 -46.255  1.00  0.00    -0.089 SA
ENDROOT
BRANCH   1   2
ATOM      2  C   UNL     1       6.220  -9.739 -44.738  1.00  0.00     0.025 A 
ATOM      3  C   UNL     1       6.570  -8.689 -43.871  1.00  0.00     0.053 A 
ATOM      4  C   UNL     1       7.247  -8.963 -42.671  1.00  0.00     0.015 A 
ATOM      5  C   UNL     1       7.605 -10.269 -42.343  1.00  0.00     0.001 A 
ATOM      6  C   UNL     1       6.594 -11.048 -44.395  1.00  0.00     0.016 A 
ATOM      7  C   UNL     1       7.283 -11.311 -43.209  1.00  0.00     0.001 A 
BRANCH   3   8
ATOM      8  C   UNL     1       6.239  -7.265 -44.121  1.00  0.00     0.252 C 
ATOM      9  N   UNL     1       6.906  -6.658 -45.161  1.00  0.00    -0.355 N 
ATOM     10  O   UNL     1       5.429  -6.695 -43.398  1.00  0.00    -0.269 OA
ATOM     11  C   UNL     1       6.592  -5.313 -45.568  1.00  0.00     0.143 C 
ATOM     12  H   UNL     1       7.446  -7.237 -45.794  1.00  0.00     0.163 HD
ENDBRANCH   3   8
ENDBRANCH   1   2
BRANCH   1  13
ATOM     13  C   UNL     1       3.632  -9.841 -45.666  1.00  0.00     0.014 A 
ATOM     14  C   UNL     1       2.886  -8.789 -45.125  1.00  0.00     0.016 A 
ATOM     15  C   UNL     1       3.095 -11.134 -45.725  1.00  0.00     0.043 A 
ATOM     16  C   UNL     1       1.582  -8.995 -44.649  1.00  0.00     0.014 A 
ATOM     17  C   UNL     1       1.789 -11.313 -45.252  1.00  0.00     0.067 A 
ATOM     18  C   UNL     1       1.021 -10.285 -44.720  1.00  0.00     0.027 A 
ATOM     19  N   UNL     1       0.996 -12.425 -45.192  1.00  0.00    -0.277 N 
ATOM     20  C   UNL     1      -0.221 -10.899 -44.368  1.00  0.00     0.093 A 
ATOM     21  N   UNL     1      -0.220 -12.206 -44.668  1.00  0.00    -0.175 NA
ATOM     22  H   UNL     1       1.225 -13.364 -45.497  1.00  0.00     0.190 HD
BRANCH  20  23
ATOM     23  C   UNL     1      -1.336 -10.213 -43.778  1.00  0.00     0.033 C 
ATOM     24  C   UNL     1      -2.567 -10.150 -44.314  1.00  0.00     0.030 C 
BRANCH  24  25
ATOM     25  C   UNL     1      -3.719  -9.458 -43.729  1.00  0.00     0.063 A 
ATOM     26  C   UNL     1      -4.830 -10.125 -43.219  1.00  0.00     0.028 A 
ATOM     27  N   UNL     1      -3.595  -8.112 -43.670  1.00  0.00    -0.257 NA
ATOM     28  C   UNL     1      -5.860  -9.382 -42.645  1.00  0.00     0.004 A 
ATOM     29  C   UNL     1      -4.609  -7.415 -43.111  1.00  0.00     0.111 A 
ATOM     30  C   UNL     1      -5.751  -7.998 -42.592  1.00  0.00     0.020 A 
ENDBRANCH  24  25
ENDBRANCH  20  23
ENDBRANCH   1  13
TORSDOF 5
ENDMDL
MODEL 6
REMARK minimizedAffinity -7.7940402
REMARK minimizedRMSD -1
REMARK SMILES CNC(=O)c1ccccc1Sc1ccc2c(/C=C/c3ccccn3)n[nH]c2c1
REMARK SMILES IDX 11 1 10 2 5 3 6 4 7 5 9 6 8 7 3 8 2 9 4 10 1 11 12 13 13 14
REMARK SMILES IDX 28 15 14 16 27 17 15 18 26 19 16 20 25 21 17 23 18 24 19 25
REMARK SMILES IDX 20 26 24 27 21 28 23 29 22 30
REMARK H PARENT 2 12 26 22
ROOT
ATOM      1  S   UNL     1       2.495  -8.216 -44.732  1.00  0.00    -0.089 SA
ENDROOT
BRANCH   1   2
ATOM      2  C   UNL     1       4.210  -8.393 -44.242  1.00  0.00     0.025 A 
ATOM      3  C   UNL     1       4.801  -7.691 -43.177  1.00  0.00     0.053 A 
ATOM      4  C   UNL     1       6.137  -7.940 -42.825  1.00  0.00     0.015 A 
ATOM      5  C   UNL     1       6.898  -8.861 -43.544  1.00  0.00     0.001 A 
ATOM      6  C   UNL     1       4.993  -9.312 -44.959  1.00  0.00     0.016 A 
ATOM      7  C   UNL     1       6.326  -9.542 -44.615  1.00  0.00     0.001 A 
BRANCH   3   8
ATOM      8  C   UNL     1       4.085  -6.692 -42.346  1.00  0.00     0.252 C 
ATOM      9  N   UNL     1       4.136  -6.883 -40.984  1.00  0.00    -0.355 N 
ATOM     10  O   UNL     1       3.473  -5.779 -42.890  1.00  0.00    -0.269 OA
ATOM     11  C   UNL     1       3.571  -5.923 -40.072  1.00  0.00     0.143 C 
ATOM     12  H   UNL     1       4.780  -7.574 -40.616  1.00  0.00     0.163 HD
ENDBRANCH   3   8
ENDBRANCH   1   2
BRANCH   1  13
ATOM     13  C   UNL     1       1.964  -9.923 -44.671  1.00  0.00     0.014 A 
ATOM     14  C   UNL     1       1.131 -10.340 -43.627  1.00  0.00     0.016 A 
ATOM     15  C   UNL     1       2.393 -10.836 -45.644  1.00  0.00     0.043 A 
ATOM     16  C   UNL     1       0.693 -11.670 -43.538  1.00  0.00     0.014 A 
ATOM     17  C   UNL     1       1.934 -12.154 -45.539  1.00  0.00     0.067 A 
ATOM     18  C   UNL     1       1.100 -12.595 -44.520  1.00  0.00     0.027 A 
ATOM     19  N   UNL     1       2.156 -13.251 -46.324  1.00  0.00    -0.277 N 
ATOM     20  C   UNL     1       0.886 -13.982 -44.794  1.00  0.00     0.093 A 
ATOM     21  N   UNL     1       1.535 -14.363 -45.903  1.00  0.00    -0.175 NA
ATOM     22  H   UNL     1       2.718 -13.305 -47.166  1.00  0.00     0.190 HD
BRANCH  20  23
ATOM     23  C   UNL     1       0.075 -14.858 -43.997  1.00  0.00     0.033 C 
ATOM     24  C   UNL     1      -0.451 -16.018 -44.429  1.00  0.00     0.030 C 
BRANCH  24  25
ATOM     25  C   UNL     1      -1.278 -16.930 -43.633  1.00  0.00     0.063 A 
ATOM     26  C   UNL     1      -0.746 -17.887 -42.773  1.00  0.00     0.028 A 
ATOM     27  N   UNL     1      -2.611 -16.729 -43.756  1.00  0.00    -0.257 NA
ATOM     28  C   UNL     1      -1.615 -18.682 -42.027  1.00  0.00     0.004 A 
ATOM     29  C   UNL     1      -3.431 -17.515 -43.023  1.00  0.00     0.111 A 
ATOM     30  C   UNL     1      -2.985 -18.496 -42.155  1.00  0.00     0.020 A 
ENDBRANCH  24  25
ENDBRANCH  20  23
ENDBRANCH   1  13
TORSDOF 5
ENDMDL
MODEL 7
REMARK minimizedAffinity -7.78772211
REMARK minimizedRMSD -1
REMARK SMILES CNC(=O)c1ccccc1Sc1ccc2c(/C=C/c3ccccn3)n[nH]c2c1
REMARK SMILES IDX 11 1 10 2 5 3 6 4 7 5 9 6 8 7 3 8 2 9 4 10 1 11 12 13 13 14
REMARK SMILES IDX 28 15 14 16 27 17 15 18 26 19 16 20 25 21 17 23 18 24 19 25
REMARK SMILES IDX 20 26 24 27 21 28 23 29 22 30
REMARK H PARENT 2 12 26 22
ROOT
ATOM      1  S   UNL     1       4.562  -9.571 -46.202  1.00  0.00    -0.089 SA
ENDROOT
BRANCH   1   2
ATOM      2  C   UNL     1       4.952  -8.795 -44.634  1.00  0.00     0.025 A 
ATOM      3  C   UNL     1       6.198  -8.903 -43.990  1.00  0.00     0.053 A 
ATOM      4  C   UNL     1       6.434  -8.207 -42.793  1.00  0.00     0.015 A 
ATOM      5  C   UNL     1       5.430  -7.430 -42.216  1.00  0.00     0.001 A 
ATOM      6  C   UNL     1       3.951  -8.012 -44.036  1.00  0.00     0.016 A 
ATOM      7  C   UNL     1       4.187  -7.338 -42.836  1.00  0.00     0.001 A 
BRANCH   3   8
ATOM      8  C   UNL     1       7.333  -9.700 -44.514  1.00  0.00     0.252 C 
ATOM      9  N   UNL     1       7.354 -11.032 -44.166  1.00  0.00    -0.355 N 
ATOM     10  O   UNL     1       8.195  -9.154 -45.193  1.00  0.00    -0.269 OA
ATOM     11  C   UNL     1       8.345 -11.929 -44.700  1.00  0.00     0.143 C 
ATOM     12  H   UNL     1       6.532 -11.431 -43.726  1.00  0.00     0.163 HD
ENDBRANCH   3   8
ENDBRANCH   1   2
BRANCH   1  13
ATOM     13  C   UNL     1       3.540 -10.928 -45.644  1.00  0.00     0.014 A 
ATOM     14  C   UNL     1       4.152 -12.107 -45.204  1.00  0.00     0.016 A 
ATOM     15  C   UNL     1       2.143 -10.822 -45.668  1.00  0.00     0.043 A 
ATOM     16  C   UNL     1       3.389 -13.197 -44.760  1.00  0.00     0.014 A 
ATOM     17  C   UNL     1       1.404 -11.919 -45.212  1.00  0.00     0.067 A 
ATOM     18  C   UNL     1       1.984 -13.098 -44.759  1.00  0.00     0.027 A 
ATOM     19  N   UNL     1       0.056 -12.114 -45.097  1.00  0.00    -0.277 N 
ATOM     20  C   UNL     1       0.883 -13.935 -44.399  1.00  0.00     0.093 A 
ATOM     21  N   UNL     1      -0.288 -13.315 -44.607  1.00  0.00    -0.175 NA
ATOM     22  H   UNL     1      -0.685 -11.462 -45.331  1.00  0.00     0.190 HD
BRANCH  20  23
ATOM     23  C   UNL     1       1.004 -15.266 -43.872  1.00  0.00     0.033 C 
ATOM     24  C   UNL     1       0.317 -15.736 -42.815  1.00  0.00     0.030 C 
BRANCH  24  25
ATOM     25  C   UNL     1       0.422 -17.089 -42.263  1.00  0.00     0.063 A 
ATOM     26  C   UNL     1       1.514 -17.525 -41.516  1.00  0.00     0.028 A 
ATOM     27  N   UNL     1      -0.659 -17.871 -42.486  1.00  0.00    -0.257 NA
ATOM     28  C   UNL     1       1.504 -18.819 -40.997  1.00  0.00     0.004 A 
ATOM     29  C   UNL     1      -0.642 -19.122 -41.974  1.00  0.00     0.111 A 
ATOM     30  C   UNL     1       0.406 -19.637 -41.232  1.00  0.00     0.020 A 
ENDBRANCH  24  25
ENDBRANCH  20  23
ENDBRANCH   1  13
TORSDOF 5
ENDMDL
MODEL 8
REMARK minimizedAffinity -7.76052523
REMARK minimizedRMSD -1
REMARK SMILES CNC(=O)c1ccccc1Sc1ccc2c(/C=C/c3ccccn3)n[nH]c2c1
REMARK SMILES IDX 11 1 10 2 5 3 6 4 7 5 9 6 8 7 3 8 2 9 4 10 1 11 12 13 13 14
REMARK SMILES IDX 28 15 14 16 27 17 15 18 26 19 16 20 25 21 17 23 18 24 19 25
REMARK SMILES IDX 20 26 24 27 21 28 23 29 22 30
REMARK H PARENT 2 12 26 22
ROOT
ATOM      1  S   UNL     1      -2.956  -8.653 -46.232  1.00  0.00    -0.089 SA
ENDROOT
BRANCH   1   2
ATOM      2  C   UNL     1      -3.763  -8.851 -44.644  1.00  0.00     0.025 A 
ATOM      3  C   UNL     1      -4.116  -7.783 -43.801  1.00  0.00     0.053 A 
ATOM      4  C   UNL     1      -4.803  -8.029 -42.601  1.00  0.00     0.015 A 
ATOM      5  C   UNL     1      -5.114  -9.333 -42.219  1.00  0.00     0.001 A 
ATOM      6  C   UNL     1      -4.080 -10.159 -44.241  1.00  0.00     0.016 A 
ATOM      7  C   UNL     1      -4.747 -10.398 -43.038  1.00  0.00     0.001 A 
BRANCH   3   8
ATOM      8  C   UNL     1      -3.834  -6.359 -44.109  1.00  0.00     0.252 C 
ATOM      9  N   UNL     1      -2.601  -5.885 -43.722  1.00  0.00    -0.355 N 
ATOM     10  O   UNL     1      -4.693  -5.676 -44.655  1.00  0.00    -0.269 OA
ATOM     11  C   UNL     1      -2.172  -4.553 -44.060  1.00  0.00     0.143 C 
ATOM     12  H   UNL     1      -1.902  -6.550 -43.410  1.00  0.00     0.163 HD
ENDBRANCH   3   8
ENDBRANCH   1   2
BRANCH   1  13
ATOM     13  C   UNL     1      -1.608  -9.816 -46.056  1.00  0.00     0.014 A 
ATOM     14  C   UNL     1      -0.506  -9.467 -45.269  1.00  0.00     0.016 A 
ATOM     15  C   UNL     1      -1.645 -11.052 -46.716  1.00  0.00     0.043 A 
ATOM     16  C   UNL     1       0.575 -10.347 -45.105  1.00  0.00     0.014 A 
ATOM     17  C   UNL     1      -0.560 -11.916 -46.530  1.00  0.00     0.067 A 
ATOM     18  C   UNL     1       0.542 -11.601 -45.746  1.00  0.00     0.027 A 
ATOM     19  N   UNL     1      -0.313 -13.170 -47.014  1.00  0.00    -0.277 N 
ATOM     20  C   UNL     1       1.395 -12.745 -45.834  1.00  0.00     0.093 A 
ATOM     21  N   UNL     1       0.853 -13.696 -46.609  1.00  0.00    -0.175 NA
ATOM     22  H   UNL     1      -0.904 -13.725 -47.622  1.00  0.00     0.190 HD
BRANCH  20  23
ATOM     23  C   UNL     1       2.664 -12.874 -45.175  1.00  0.00     0.033 C 
ATOM     24  C   UNL     1       3.814 -12.334 -45.616  1.00  0.00     0.030 C 
BRANCH  24  25
ATOM     25  C   UNL     1       5.119 -12.449 -44.959  1.00  0.00     0.063 A 
ATOM     26  C   UNL     1       6.197 -11.620 -45.256  1.00  0.00     0.028 A 
ATOM     27  N   UNL     1       5.179 -13.393 -43.992  1.00  0.00    -0.257 NA
ATOM     28  C   UNL     1       7.387 -11.780 -44.548  1.00  0.00     0.004 A 
ATOM     29  C   UNL     1       6.345 -13.529 -43.322  1.00  0.00     0.111 A 
ATOM     30  C   UNL     1       7.467 -12.756 -43.564  1.00  0.00     0.020 A 
ENDBRANCH  24  25
ENDBRANCH  20  23
ENDBRANCH   1  13
TORSDOF 5
ENDMDL
MODEL 9
REMARK minimizedAffinity -7.75982952
REMARK minimizedRMSD -1
REMARK SMILES CNC(=O)c1ccccc1Sc1ccc2c(/C=C/c3ccccn3)n[nH]c2c1
REMARK SMILES IDX 11 1 10 2 5 3 6 4 7 5 9 6 8 7 3 8 2 9 4 10 1 11 12 13 13 14
REMARK SMILES IDX 28 15 14 16 27 17 15 18 26 19 16 20 25 21 17 23 18 24 19 25
REMARK SMILES IDX 20 26 24 27 21 28 23 29 22 30
REMARK H PARENT 2 12 26 22
ROOT
ATOM      1  S   UNL     1       4.950  -9.272 -46.496  1.00  0.00    -0.089 SA
ENDROOT
BRANCH   1   2
ATOM      2  C   UNL     1       5.798  -9.318 -44.918  1.00  0.00     0.025 A 
ATOM      3  C   UNL     1       6.458 -10.452 -44.411  1.00  0.00     0.053 A 
ATOM      4  C   UNL     1       7.150 -10.377 -43.192  1.00  0.00     0.015 A 
ATOM      5  C   UNL     1       7.165  -9.192 -42.458  1.00  0.00     0.001 A 
ATOM      6  C   UNL     1       5.819  -8.134 -44.164  1.00  0.00     0.016 A 
ATOM      7  C   UNL     1       6.494  -8.072 -42.943  1.00  0.00     0.001 A 
BRANCH   3   8
ATOM      8  C   UNL     1       6.505 -11.761 -45.107  1.00  0.00     0.252 C 
ATOM      9  N   UNL     1       5.418 -12.586 -44.928  1.00  0.00    -0.355 N 
ATOM     10  O   UNL     1       7.491 -12.058 -45.773  1.00  0.00    -0.269 OA
ATOM     11  C   UNL     1       5.301 -13.834 -45.636  1.00  0.00     0.143 C 
ATOM     12  H   UNL     1       4.590 -12.206 -44.485  1.00  0.00     0.163 HD
ENDBRANCH   3   8
ENDBRANCH   1   2
BRANCH   1  13
ATOM     13  C   UNL     1       3.304  -8.818 -45.965  1.00  0.00     0.014 A 
ATOM     14  C   UNL     1       2.554  -9.730 -45.214  1.00  0.00     0.016 A 
ATOM     15  C   UNL     1       2.762  -7.574 -46.314  1.00  0.00     0.043 A 
ATOM     16  C   UNL     1       1.258  -9.417 -44.778  1.00  0.00     0.014 A 
ATOM     17  C   UNL     1       1.471  -7.281 -45.860  1.00  0.00     0.067 A 
ATOM     18  C   UNL     1       0.708  -8.162 -45.105  1.00  0.00     0.027 A 
ATOM     19  N   UNL     1       0.691  -6.170 -46.016  1.00  0.00    -0.277 N 
ATOM     20  C   UNL     1      -0.521  -7.472 -44.865  1.00  0.00     0.093 A 
ATOM     21  N   UNL     1      -0.511  -6.253 -45.425  1.00  0.00    -0.175 NA
ATOM     22  H   UNL     1       0.923  -5.316 -46.511  1.00  0.00     0.190 HD
BRANCH  20  23
ATOM     23  C   UNL     1      -1.625  -8.001 -44.114  1.00  0.00     0.033 C 
ATOM     24  C   UNL     1      -2.603  -8.766 -44.629  1.00  0.00     0.030 C 
BRANCH  24  25
ATOM     25  C   UNL     1      -3.737  -9.319 -43.884  1.00  0.00     0.063 A 
ATOM     26  C   UNL     1      -4.500  -8.571 -42.990  1.00  0.00     0.028 A 
ATOM     27  N   UNL     1      -4.024 -10.609 -44.175  1.00  0.00    -0.257 NA
ATOM     28  C   UNL     1      -5.585  -9.176 -42.358  1.00  0.00     0.004 A 
ATOM     29  C   UNL     1      -5.080 -11.172 -43.546  1.00  0.00     0.111 A 
ATOM     30  C   UNL     1      -5.881 -10.504 -42.637  1.00  0.00     0.020 A 
ENDBRANCH  24  25
ENDBRANCH  20  23
ENDBRANCH   1  13
TORSDOF 5
ENDMDL
MODEL 10
REMARK minimizedAffinity -7.74742365
REMARK minimizedRMSD -1
REMARK SMILES CNC(=O)c1ccccc1Sc1ccc2c(/C=C/c3ccccn3)n[nH]c2c1
REMARK SMILES IDX 11 1 10 2 5 3 6 4 7 5 9 6 8 7 3 8 2 9 4 10 1 11 12 13 13 14
REMARK SMILES IDX 28 15 14 16 27 17 15 18 26 19 16 20 25 21 17 23 18 24 19 25
REMARK SMILES IDX 20 26 24 27 21 28 23 29 22 30
REMARK H PARENT 2 12 26 22
ROOT
ATOM      1  S   UNL     1       6.740 -12.603 -45.201  1.00  0.00    -0.089 SA
ENDROOT
BRANCH   1   2
ATOM      2  C   UNL     1       6.834 -11.037 -44.335  1.00  0.00     0.025 A 
ATOM      3  C   UNL     1       7.241 -10.901 -42.996  1.00  0.00     0.053 A 
ATOM      4  C   UNL     1       7.345  -9.625 -42.418  1.00  0.00     0.015 A 
ATOM      5  C   UNL     1       7.017  -8.487 -43.152  1.00  0.00     0.001 A 
ATOM      6  C   UNL     1       6.503  -9.880 -45.058  1.00  0.00     0.016 A 
ATOM      7  C   UNL     1       6.590  -8.616 -44.472  1.00  0.00     0.001 A 
BRANCH   3   8
ATOM      8  C   UNL     1       7.613 -12.043 -42.124  1.00  0.00     0.252 C 
ATOM      9  N   UNL     1       8.945 -12.390 -42.111  1.00  0.00    -0.355 N 
ATOM     10  O   UNL     1       6.743 -12.630 -41.491  1.00  0.00    -0.269 OA
ATOM     11  C   UNL     1       9.443 -13.410 -41.226  1.00  0.00     0.143 C 
ATOM     12  H   UNL     1       9.613 -11.766 -42.548  1.00  0.00     0.163 HD
ENDBRANCH   3   8
ENDBRANCH   1   2
BRANCH   1  13
ATOM     13  C   UNL     1       5.074 -13.103 -44.785  1.00  0.00     0.014 A 
ATOM     14  C   UNL     1       4.876 -14.287 -44.067  1.00  0.00     0.016 A 
ATOM     15  C   UNL     1       3.978 -12.329 -45.191  1.00  0.00     0.043 A 
ATOM     16  C   UNL     1       3.586 -14.718 -43.722  1.00  0.00     0.014 A 
ATOM     17  C   UNL     1       2.702 -12.775 -44.827  1.00  0.00     0.067 A 
ATOM     18  C   UNL     1       2.476 -13.940 -44.106  1.00  0.00     0.027 A 
ATOM     19  N   UNL     1       1.463 -12.244 -45.053  1.00  0.00    -0.277 N 
ATOM     20  C   UNL     1       1.056 -14.012 -43.958  1.00  0.00     0.093 A 
ATOM     21  N   UNL     1       0.454 -12.964 -44.539  1.00  0.00    -0.175 NA
ATOM     22  H   UNL     1       1.238 -11.389 -45.548  1.00  0.00     0.190 HD
BRANCH  20  23
ATOM     23  C   UNL     1       0.356 -15.061 -43.271  1.00  0.00     0.033 C 
ATOM     24  C   UNL     1      -0.479 -15.936 -43.858  1.00  0.00     0.030 C 
BRANCH  24  25
ATOM     25  C   UNL     1      -1.201 -17.015 -43.179  1.00  0.00     0.063 A 
ATOM     26  C   UNL     1      -2.584 -17.166 -43.245  1.00  0.00     0.028 A 
ATOM     27  N   UNL     1      -0.409 -17.894 -42.523  1.00  0.00    -0.257 NA
ATOM     28  C   UNL     1      -3.177 -18.249 -42.597  1.00  0.00     0.004 A 
ATOM     29  C   UNL     1      -1.009 -18.933 -41.901  1.00  0.00     0.111 A 
ATOM     30  C   UNL     1      -2.376 -19.150 -41.908  1.00  0.00     0.020 A 
ENDBRANCH  24  25
ENDBRANCH  20  23
ENDBRANCH   1  13
TORSDOF 5
ENDMDL
MODEL 11
REMARK minimizedAffinity -7.74247265
REMARK minimizedRMSD -1
REMARK SMILES CNC(=O)c1ccccc1Sc1ccc2c(/C=C/c3ccccn3)n[nH]c2c1
REMARK SMILES IDX 11 1 10 2 5 3 6 4 7 5 9 6 8 7 3 8 2 9 4 10 1 11 12 13 13 14
REMARK SMILES IDX 28 15 14 16 27 17 15 18 26 19 16 20 25 21 17 23 18 24 19 25
REMARK SMILES IDX 20 26 24 27 21 28 23 29 22 30
REMARK H PARENT 2 12 26 22
ROOT
ATOM      1  S   UNL     1       1.166 -16.670 -42.638  1.00  0.00    -0.089 SA
ENDROOT
BRANCH   1   2
ATOM      2  C   UNL     1      -0.440 -17.465 -42.653  1.00  0.00     0.025 A 
ATOM      3  C   UNL     1      -0.712 -18.703 -42.044  1.00  0.00     0.053 A 
ATOM      4  C   UNL     1      -2.017 -19.220 -42.052  1.00  0.00     0.015 A 
ATOM      5  C   UNL     1      -3.048 -18.531 -42.689  1.00  0.00     0.001 A 
ATOM      6  C   UNL     1      -1.489 -16.787 -43.295  1.00  0.00     0.016 A 
ATOM      7  C   UNL     1      -2.781 -17.316 -43.316  1.00  0.00     0.001 A 
BRANCH   3   8
ATOM      8  C   UNL     1       0.307 -19.519 -41.339  1.00  0.00     0.252 C 
ATOM      9  N   UNL     1       0.852 -18.965 -40.203  1.00  0.00    -0.355 N 
ATOM     10  O   UNL     1       0.633 -20.609 -41.797  1.00  0.00    -0.269 OA
ATOM     11  C   UNL     1       1.770 -19.704 -39.376  1.00  0.00     0.143 C 
ATOM     12  H   UNL     1       0.424 -18.131 -39.817  1.00  0.00     0.163 HD
ENDBRANCH   3   8
ENDBRANCH   1   2
BRANCH   1  13
ATOM     13  C   UNL     1       0.830 -15.245 -43.666  1.00  0.00     0.014 A 
ATOM     14  C   UNL     1       0.417 -14.052 -43.062  1.00  0.00     0.016 A 
ATOM     15  C   UNL     1       0.958 -15.327 -45.059  1.00  0.00     0.043 A 
ATOM     16  C   UNL     1       0.140 -12.911 -43.830  1.00  0.00     0.014 A 
ATOM     17  C   UNL     1       0.686 -14.173 -45.802  1.00  0.00     0.067 A 
ATOM     18  C   UNL     1       0.284 -12.973 -45.230  1.00  0.00     0.027 A 
ATOM     19  N   UNL     1       0.736 -13.933 -47.146  1.00  0.00    -0.277 N 
ATOM     20  C   UNL     1       0.117 -12.077 -46.332  1.00  0.00     0.093 A 
ATOM     21  N   UNL     1       0.403 -12.681 -47.495  1.00  0.00    -0.175 NA
ATOM     22  H   UNL     1       0.995 -14.582 -47.881  1.00  0.00     0.190 HD
BRANCH  20  23
ATOM     23  C   UNL     1      -0.293 -10.706 -46.219  1.00  0.00     0.033 C 
ATOM     24  C   UNL     1      -1.559 -10.300 -46.025  1.00  0.00     0.030 C 
BRANCH  24  25
ATOM     25  C   UNL     1      -2.001  -8.907 -45.903  1.00  0.00     0.063 A 
ATOM     26  C   UNL     1      -3.336  -8.521 -45.988  1.00  0.00     0.028 A 
ATOM     27  N   UNL     1      -1.008  -8.025 -45.642  1.00  0.00    -0.257 NA
ATOM     28  C   UNL     1      -3.661  -7.176 -45.820  1.00  0.00     0.004 A 
ATOM     29  C   UNL     1      -1.351  -6.727 -45.485  1.00  0.00     0.111 A 
ATOM     30  C   UNL     1      -2.650  -6.258 -45.566  1.00  0.00     0.020 A 
ENDBRANCH  24  25
ENDBRANCH  20  23
ENDBRANCH   1  13
TORSDOF 5
ENDMDL
MODEL 12
REMARK minimizedAffinity -7.72678947
REMARK minimizedRMSD -1
REMARK SMILES CNC(=O)c1ccccc1Sc1ccc2c(/C=C/c3ccccn3)n[nH]c2c1
REMARK SMILES IDX 11 1 10 2 5 3 6 4 7 5 9 6 8 7 3 8 2 9 4 10 1 11 12 13 13 14
REMARK SMILES IDX 28 15 14 16 27 17 15 18 26 19 16 20 25 21 17 23 18 24 19 25
REMARK SMILES IDX 20 26 24 27 21 28 23 29 22 30
REMARK H PARENT 2 12 26 22
ROOT
ATOM      1  S   UNL     1       5.454  -9.167 -46.638  1.00  0.00    -0.089 SA
ENDROOT
BRANCH   1   2
ATOM      2  C   UNL     1       6.240  -9.413 -45.046  1.00  0.00     0.025 A 
ATOM      3  C   UNL     1       6.487  -8.383 -44.121  1.00  0.00     0.053 A 
ATOM      4  C   UNL     1       7.052  -8.680 -42.871  1.00  0.00     0.015 A 
ATOM      5  C   UNL     1       7.402  -9.989 -42.545  1.00  0.00     0.001 A 
ATOM      6  C   UNL     1       6.604 -10.725 -44.704  1.00  0.00     0.016 A 
ATOM      7  C   UNL     1       7.183 -11.011 -43.466  1.00  0.00     0.001 A 
BRANCH   3   8
ATOM      8  C   UNL     1       6.154  -6.958 -44.364  1.00  0.00     0.252 C 
ATOM      9  N   UNL     1       6.906  -6.311 -45.319  1.00  0.00    -0.355 N 
ATOM     10  O   UNL     1       5.269  -6.421 -43.706  1.00  0.00    -0.269 OA
ATOM     11  C   UNL     1       6.607  -4.960 -45.718  1.00  0.00     0.143 C 
ATOM     12  H   UNL     1       7.514  -6.863 -45.913  1.00  0.00     0.163 HD
ENDBRANCH   3   8
ENDBRANCH   1   2
BRANCH   1  13
ATOM     13  C   UNL     1       3.768  -8.869 -46.122  1.00  0.00     0.014 A 
ATOM     14  C   UNL     1       3.058  -9.895 -45.489  1.00  0.00     0.016 A 
ATOM     15  C   UNL     1       3.157  -7.632 -46.369  1.00  0.00     0.043 A 
ATOM     16  C   UNL     1       1.732  -9.706 -45.070  1.00  0.00     0.014 A 
ATOM     17  C   UNL     1       1.838  -7.465 -45.933  1.00  0.00     0.067 A 
ATOM     18  C   UNL     1       1.112  -8.461 -45.293  1.00  0.00     0.027 A 
ATOM     19  N   UNL     1       0.992  -6.394 -46.008  1.00  0.00    -0.277 N 
ATOM     20  C   UNL     1      -0.166  -7.874 -45.030  1.00  0.00     0.093 A 
ATOM     21  N   UNL     1      -0.218  -6.608 -45.470  1.00  0.00    -0.175 NA
ATOM     22  H   UNL     1       1.182  -5.483 -46.411  1.00  0.00     0.190 HD
BRANCH  20  23
ATOM     23  C   UNL     1      -1.254  -8.541 -44.372  1.00  0.00     0.033 C 
ATOM     24  C   UNL     1      -2.545  -8.182 -44.474  1.00  0.00     0.030 C 
BRANCH  24  25
ATOM     25  C   UNL     1      -3.672  -8.849 -43.816  1.00  0.00     0.063 A 
ATOM     26  C   UNL     1      -4.605  -8.174 -43.032  1.00  0.00     0.028 A 
ATOM     27  N   UNL     1      -3.771 -10.173 -44.077  1.00  0.00    -0.257 NA
ATOM     28  C   UNL     1      -5.666  -8.889 -42.480  1.00  0.00     0.004 A 
ATOM     29  C   UNL     1      -4.808 -10.843 -43.527  1.00  0.00     0.111 A 
ATOM     30  C   UNL     1      -5.770 -10.252 -42.727  1.00  0.00     0.020 A 
ENDBRANCH  24  25
ENDBRANCH  20  23
ENDBRANCH   1  13
TORSDOF 5
ENDMDL
MODEL 13
REMARK minimizedAffinity -7.69620848
REMARK minimizedRMSD -1
REMARK SMILES CNC(=O)c1ccccc1Sc1ccc2c(/C=C/c3ccccn3)n[nH]c2c1
REMARK SMILES IDX 11 1 10 2 5 3 6 4 7 5 9 6 8 7 3 8 2 9 4 10 1 11 12 13 13 14
REMARK SMILES IDX 28 15 14 16 27 17 15 18 26 19 16 20 25 21 17 23 18 24 19 25
REMARK SMILES IDX 20 26 24 27 21 28 23 29 22 30
REMARK H PARENT 2 12 26 22
ROOT
ATOM      1  S   UNL     1       1.725 -19.802 -40.234  1.00  0.00    -0.089 SA
ENDROOT
BRANCH   1   2
ATOM      2  C   UNL     1       0.680 -18.865 -41.349  1.00  0.00     0.025 A 
ATOM      3  C   UNL     1      -0.444 -19.395 -42.008  1.00  0.00     0.053 A 
ATOM      4  C   UNL     1      -1.242 -18.568 -42.815  1.00  0.00     0.015 A 
ATOM      5  C   UNL     1      -0.912 -17.226 -42.997  1.00  0.00     0.001 A 
ATOM      6  C   UNL     1       1.000 -17.512 -41.547  1.00  0.00     0.016 A 
ATOM      7  C   UNL     1       0.213 -16.700 -42.366  1.00  0.00     0.001 A 
BRANCH   3   8
ATOM      8  C   UNL     1      -0.885 -20.806 -41.885  1.00  0.00     0.252 C 
ATOM      9  N   UNL     1      -2.104 -21.013 -41.280  1.00  0.00    -0.355 N 
ATOM     10  O   UNL     1      -0.157 -21.705 -42.290  1.00  0.00    -0.269 OA
ATOM     11  C   UNL     1      -2.686 -22.327 -41.200  1.00  0.00     0.143 C 
ATOM     12  H   UNL     1      -2.701 -20.212 -41.108  1.00  0.00     0.163 HD
ENDBRANCH   3   8
ENDBRANCH   1   2
BRANCH   1  13
ATOM     13  C   UNL     1       3.252 -19.822 -41.164  1.00  0.00     0.014 A 
ATOM     14  C   UNL     1       4.181 -18.794 -40.972  1.00  0.00     0.016 A 
ATOM     15  C   UNL     1       3.507 -20.844 -42.090  1.00  0.00     0.043 A 
ATOM     16  C   UNL     1       5.391 -18.769 -41.682  1.00  0.00     0.014 A 
ATOM     17  C   UNL     1       4.725 -20.802 -42.778  1.00  0.00     0.067 A 
ATOM     18  C   UNL     1       5.670 -19.799 -42.601  1.00  0.00     0.027 A 
ATOM     19  N   UNL     1       5.262 -21.643 -43.712  1.00  0.00    -0.277 N 
ATOM     20  C   UNL     1       6.739 -20.141 -43.486  1.00  0.00     0.093 A 
ATOM     21  N   UNL     1       6.474 -21.274 -44.153  1.00  0.00    -0.175 NA
ATOM     22  H   UNL     1       4.853 -22.492 -44.087  1.00  0.00     0.190 HD
BRANCH  20  23
ATOM     23  C   UNL     1       7.948 -19.382 -43.642  1.00  0.00     0.033 C 
ATOM     24  C   UNL     1       8.220 -18.582 -44.687  1.00  0.00     0.030 C 
BRANCH  24  25
ATOM     25  C   UNL     1       9.444 -17.796 -44.866  1.00  0.00     0.063 A 
ATOM     26  C   UNL     1       9.878 -16.843 -43.948  1.00  0.00     0.028 A 
ATOM     27  N   UNL     1      10.158 -18.112 -45.972  1.00  0.00    -0.257 NA
ATOM     28  C   UNL     1      11.078 -16.174 -44.186  1.00  0.00     0.004 A 
ATOM     29  C   UNL     1      11.316 -17.448 -46.179  1.00  0.00     0.111 A 
ATOM     30  C   UNL     1      11.812 -16.479 -45.325  1.00  0.00     0.020 A 
ENDBRANCH  24  25
ENDBRANCH  20  23
ENDBRANCH   1  13
TORSDOF 5
ENDMDL
MODEL 14
REMARK minimizedAffinity -7.68944883
REMARK minimizedRMSD -1
REMARK SMILES CNC(=O)c1ccccc1Sc1ccc2c(/C=C/c3ccccn3)n[nH]c2c1
REMARK SMILES IDX 11 1 10 2 5 3 6 4 7 5 9 6 8 7 3 8 2 9 4 10 1 11 12 13 13 14
REMARK SMILES IDX 28 15 14 16 27 17 15 18 26 19 16 20 25 21 17 23 18 24 19 25
REMARK SMILES IDX 20 26 24 27 21 28 23 29 22 30
REMARK H PARENT 2 12 26 22
ROOT
ATOM      1  S   UNL     1       6.798 -13.451 -44.948  1.00  0.00    -0.089 SA
ENDROOT
BRANCH   1   2
ATOM      2  C   UNL     1       7.323 -12.849 -43.343  1.00  0.00     0.025 A 
ATOM      3  C   UNL     1       7.352 -11.490 -42.982  1.00  0.00     0.053 A 
ATOM      4  C   UNL     1       7.719 -11.115 -41.680  1.00  0.00     0.015 A 
ATOM      5  C   UNL     1       8.088 -12.079 -40.743  1.00  0.00     0.001 A 
ATOM      6  C   UNL     1       7.703 -13.806 -42.389  1.00  0.00     0.016 A 
ATOM      7  C   UNL     1       8.085 -13.426 -41.101  1.00  0.00     0.001 A 
BRANCH   3   8
ATOM      8  C   UNL     1       6.979 -10.384 -43.898  1.00  0.00     0.252 C 
ATOM      9  N   UNL     1       8.003  -9.834 -44.637  1.00  0.00    -0.355 N 
ATOM     10  O   UNL     1       5.816  -9.998 -43.940  1.00  0.00    -0.269 OA
ATOM     11  C   UNL     1       7.748  -8.829 -45.635  1.00  0.00     0.143 C 
ATOM     12  H   UNL     1       8.899 -10.306 -44.648  1.00  0.00     0.163 HD
ENDBRANCH   3   8
ENDBRANCH   1   2
BRANCH   1  13
ATOM     13  C   UNL     1       5.063 -13.747 -44.629  1.00  0.00     0.014 A 
ATOM     14  C   UNL     1       4.687 -14.887 -43.909  1.00  0.00     0.016 A 
ATOM     15  C   UNL     1       4.091 -12.861 -45.112  1.00  0.00     0.043 A 
ATOM     16  C   UNL     1       3.337 -15.159 -43.639  1.00  0.00     0.014 A 
ATOM     17  C   UNL     1       2.752 -13.150 -44.821  1.00  0.00     0.067 A 
ATOM     18  C   UNL     1       2.350 -14.267 -44.101  1.00  0.00     0.027 A 
ATOM     19  N   UNL     1       1.599 -12.485 -45.130  1.00  0.00    -0.277 N 
ATOM     20  C   UNL     1       0.925 -14.172 -44.040  1.00  0.00     0.093 A 
ATOM     21  N   UNL     1       0.484 -13.074 -44.670  1.00  0.00    -0.175 NA
ATOM     22  H   UNL     1       1.504 -11.619 -45.649  1.00  0.00     0.190 HD
BRANCH  20  23
ATOM     23  C   UNL     1       0.068 -15.119 -43.384  1.00  0.00     0.033 C 
ATOM     24  C   UNL     1      -0.691 -16.031 -44.016  1.00  0.00     0.030 C 
BRANCH  24  25
ATOM     25  C   UNL     1      -1.570 -17.009 -43.368  1.00  0.00     0.063 A 
ATOM     26  C   UNL     1      -1.098 -18.041 -42.561  1.00  0.00     0.028 A 
ATOM     27  N   UNL     1      -2.891 -16.795 -43.569  1.00  0.00    -0.257 NA
ATOM     28  C   UNL     1      -2.015 -18.897 -41.955  1.00  0.00     0.004 A 
ATOM     29  C   UNL     1      -3.759 -17.642 -42.971  1.00  0.00     0.111 A 
ATOM     30  C   UNL     1      -3.373 -18.698 -42.165  1.00  0.00     0.020 A 
ENDBRANCH  24  25
ENDBRANCH  20  23
ENDBRANCH   1  13
TORSDOF 5
ENDMDL
MODEL 15
REMARK minimizedAffinity -7.62612295
REMARK minimizedRMSD -1
REMARK SMILES CNC(=O)c1ccccc1Sc1ccc2c(/C=C/c3ccccn3)n[nH]c2c1
REMARK SMILES IDX 11 1 10 2 5 3 6 4 7 5 9 6 8 7 3 8 2 9 4 10 1 11 12 13 13 14
REMARK SMILES IDX 28 15 14 16 27 17 15 18 26 19 16 20 25 21 17 23 18 24 19 25
REMARK SMILES IDX 20 26 24 27 21 28 23 29 22 30
REMARK H PARENT 2 12 26 22
ROOT
ATOM      1  S   UNL     1       7.488 -13.564 -42.434  1.00  0.00    -0.089 SA
ENDROOT
BRANCH   1   2
ATOM      2  C   UNL     1       9.113 -14.276 -42.684  1.00  0.00     0.025 A 
ATOM      3  C   UNL     1       9.545 -14.850 -43.893  1.00  0.00     0.053 A 
ATOM      4  C   UNL     1      10.859 -15.328 -44.016  1.00  0.00     0.015 A 
ATOM      5  C   UNL     1      11.738 -15.268 -42.936  1.00  0.00     0.001 A 
ATOM      6  C   UNL     1      10.010 -14.229 -41.605  1.00  0.00     0.016 A 
ATOM      7  C   UNL     1      11.310 -14.723 -41.728  1.00  0.00     0.001 A 
BRANCH   3   8
ATOM      8  C   UNL     1       8.694 -14.965 -45.103  1.00  0.00     0.252 C 
ATOM      9  N   UNL     1       7.962 -16.124 -45.226  1.00  0.00    -0.355 N 
ATOM     10  O   UNL     1       8.698 -14.062 -45.934  1.00  0.00    -0.269 OA
ATOM     11  C   UNL     1       7.021 -16.304 -46.300  1.00  0.00     0.143 C 
ATOM     12  H   UNL     1       7.906 -16.748 -44.429  1.00  0.00     0.163 HD
ENDBRANCH   3   8
ENDBRANCH   1   2
BRANCH   1  13
ATOM     13  C   UNL     1       6.567 -15.020 -41.954  1.00  0.00     0.014 A 
ATOM     14  C   UNL     1       5.436 -15.385 -42.692  1.00  0.00     0.016 A 
ATOM     15  C   UNL     1       6.961 -15.774 -40.840  1.00  0.00     0.043 A 
ATOM     16  C   UNL     1       4.683 -16.518 -42.350  1.00  0.00     0.014 A 
ATOM     17  C   UNL     1       6.199 -16.905 -40.524  1.00  0.00     0.067 A 
ATOM     18  C   UNL     1       5.078 -17.297 -41.244  1.00  0.00     0.027 A 
ATOM     19  N   UNL     1       6.333 -17.834 -39.531  1.00  0.00    -0.277 N 
ATOM     20  C   UNL     1       4.615 -18.480 -40.588  1.00  0.00     0.093 A 
ATOM     21  N   UNL     1       5.397 -18.795 -39.546  1.00  0.00    -0.175 NA
ATOM     22  H   UNL     1       7.047 -17.871 -38.812  1.00  0.00     0.190 HD
BRANCH  20  23
ATOM     23  C   UNL     1       3.467 -19.244 -40.990  1.00  0.00     0.033 C 
ATOM     24  C   UNL     1       2.202 -18.789 -40.976  1.00  0.00     0.030 C 
BRANCH  24  25
ATOM     25  C   UNL     1       1.017 -19.549 -41.384  1.00  0.00     0.063 A 
ATOM     26  C   UNL     1       1.023 -20.928 -41.571  1.00  0.00     0.028 A 
ATOM     27  N   UNL     1      -0.109 -18.807 -41.510  1.00  0.00    -0.257 NA
ATOM     28  C   UNL     1      -0.165 -21.568 -41.921  1.00  0.00     0.004 A 
ATOM     29  C   UNL     1      -1.246 -19.452 -41.852  1.00  0.00     0.111 A 
ATOM     30  C   UNL     1      -1.324 -20.816 -42.068  1.00  0.00     0.020 A 
ENDBRANCH  24  25
ENDBRANCH  20  23
ENDBRANCH   1  13
TORSDOF 5
ENDMDL
MODEL 16
REMARK minimizedAffinity -7.59371567
REMARK minimizedRMSD -1
REMARK SMILES CNC(=O)c1ccccc1Sc1ccc2c(/C=C/c3ccccn3)n[nH]c2c1
REMARK SMILES IDX 11 1 10 2 5 3 6 4 7 5 9 6 8 7 3 8 2 9 4 10 1 11 12 13 13 14
REMARK SMILES IDX 28 15 14 16 27 17 15 18 26 19 16 20 25 21 17 23 18 24 19 25
REMARK SMILES IDX 20 26 24 27 21 28 23 29 22 30
REMARK H PARENT 2 12 26 22
ROOT
ATOM      1  S   UNL     1       5.724  -9.758 -46.027  1.00  0.00    -0.089 SA
ENDROOT
BRANCH   1   2
ATOM      2  C   UNL     1       6.492 -10.152 -44.456  1.00  0.00     0.025 A 
ATOM      3  C   UNL     1       6.972 -11.428 -44.111  1.00  0.00     0.053 A 
ATOM      4  C   UNL     1       7.616 -11.630 -42.880  1.00  0.00     0.015 A 
ATOM      5  C   UNL     1       7.759 -10.578 -41.976  1.00  0.00     0.001 A 
ATOM      6  C   UNL     1       6.640  -9.106 -43.531  1.00  0.00     0.016 A 
ATOM      7  C   UNL     1       7.265  -9.317 -42.300  1.00  0.00     0.001 A 
BRANCH   3   8
ATOM      8  C   UNL     1       6.872 -12.615 -44.996  1.00  0.00     0.252 C 
ATOM      9  N   UNL     1       5.756 -13.404 -44.834  1.00  0.00    -0.355 N 
ATOM     10  O   UNL     1       7.773 -12.854 -45.793  1.00  0.00    -0.269 OA
ATOM     11  C   UNL     1       5.496 -14.520 -45.705  1.00  0.00     0.143 C 
ATOM     12  H   UNL     1       4.997 -13.056 -44.259  1.00  0.00     0.163 HD
ENDBRANCH   3   8
ENDBRANCH   1   2
BRANCH   1  13
ATOM     13  C   UNL     1       3.996  -9.856 -45.576  1.00  0.00     0.014 A 
ATOM     14  C   UNL     1       3.318  -8.686 -45.217  1.00  0.00     0.016 A 
ATOM     15  C   UNL     1       3.335 -11.091 -45.560  1.00  0.00     0.043 A 
ATOM     16  C   UNL     1       1.963  -8.717 -44.854  1.00  0.00     0.014 A 
ATOM     17  C   UNL     1       1.982 -11.095 -45.204  1.00  0.00     0.067 A 
ATOM     18  C   UNL     1       1.280  -9.948 -44.853  1.00  0.00     0.027 A 
ATOM     19  N   UNL     1       1.075 -12.114 -45.113  1.00  0.00    -0.277 N 
ATOM     20  C   UNL     1      -0.046 -10.401 -44.567  1.00  0.00     0.093 A 
ATOM     21  N   UNL     1      -0.153 -11.727 -44.736  1.00  0.00    -0.175 NA
ATOM     22  H   UNL     1       1.232 -13.098 -45.300  1.00  0.00     0.190 HD
BRANCH  20  23
ATOM     23  C   UNL     1      -1.131  -9.554 -44.160  1.00  0.00     0.033 C 
ATOM     24  C   UNL     1      -2.376  -9.982 -43.888  1.00  0.00     0.030 C 
BRANCH  24  25
ATOM     25  C   UNL     1      -3.497  -9.137 -43.468  1.00  0.00     0.063 A 
ATOM     26  C   UNL     1      -4.662  -9.644 -42.897  1.00  0.00     0.028 A 
ATOM     27  N   UNL     1      -3.289  -7.809 -43.627  1.00  0.00    -0.257 NA
ATOM     28  C   UNL     1      -5.657  -8.756 -42.493  1.00  0.00     0.004 A 
ATOM     29  C   UNL     1      -4.272  -6.971 -43.229  1.00  0.00     0.111 A 
ATOM     30  C   UNL     1      -5.462  -7.392 -42.664  1.00  0.00     0.020 A 
ENDBRANCH  24  25
ENDBRANCH  20  23
ENDBRANCH   1  13
TORSDOF 5
ENDMDL
MODEL 17
REMARK minimizedAffinity -7.51706982
REMARK minimizedRMSD -1
REMARK SMILES CNC(=O)c1ccccc1Sc1ccc2c(/C=C/c3ccccn3)n[nH]c2c1
REMARK SMILES IDX 11 1 10 2 5 3 6 4 7 5 9 6 8 7 3 8 2 9 4 10 1 11 12 13 13 14
REMARK SMILES IDX 28 15 14 16 27 17 15 18 26 19 16 20 25 21 17 23 18 24 19 25
REMARK SMILES IDX 20 26 24 27 21 28 23 29 22 30
REMARK H PARENT 2 12 26 22
ROOT
ATOM      1  S   UNL     1       7.807 -15.279 -43.254  1.00  0.00    -0.089 SA
ENDROOT
BRANCH   1   2
ATOM      2  C   UNL     1       7.743 -13.919 -42.089  1.00  0.00     0.025 A 
ATOM      3  C   UNL     1       7.743 -12.563 -42.460  1.00  0.00     0.053 A 
ATOM      4  C   UNL     1       7.627 -11.564 -41.480  1.00  0.00     0.015 A 
ATOM      5  C   UNL     1       7.543 -11.903 -40.130  1.00  0.00     0.001 A 
ATOM      6  C   UNL     1       7.663 -14.242 -40.725  1.00  0.00     0.016 A 
ATOM      7  C   UNL     1       7.566 -13.244 -39.753  1.00  0.00     0.001 A 
BRANCH   3   8
ATOM      8  C   UNL     1       7.828 -12.090 -43.864  1.00  0.00     0.252 C 
ATOM      9  N   UNL     1       6.680 -11.545 -44.394  1.00  0.00    -0.355 N 
ATOM     10  O   UNL     1       8.876 -12.224 -44.486  1.00  0.00    -0.269 OA
ATOM     11  C   UNL     1       6.669 -10.956 -45.707  1.00  0.00     0.143 C 
ATOM     12  H   UNL     1       5.908 -11.341 -43.769  1.00  0.00     0.163 HD
ENDBRANCH   3   8
ENDBRANCH   1   2
BRANCH   1  13
ATOM     13  C   UNL     1       6.457 -16.285 -42.650  1.00  0.00     0.014 A 
ATOM     14  C   UNL     1       5.157 -16.014 -43.088  1.00  0.00     0.016 A 
ATOM     15  C   UNL     1       6.696 -17.318 -41.733  1.00  0.00     0.043 A 
ATOM     16  C   UNL     1       4.068 -16.776 -42.638  1.00  0.00     0.014 A 
ATOM     17  C   UNL     1       5.595 -18.070 -41.307  1.00  0.00     0.067 A 
ATOM     18  C   UNL     1       4.294 -17.830 -41.732  1.00  0.00     0.027 A 
ATOM     19  N   UNL     1       5.504 -19.131 -40.450  1.00  0.00    -0.277 N 
ATOM     20  C   UNL     1       3.501 -18.812 -41.060  1.00  0.00     0.093 A 
ATOM     21  N   UNL     1       4.259 -19.601 -40.285  1.00  0.00    -0.175 NA
ATOM     22  H   UNL     1       6.259 -19.585 -39.948  1.00  0.00     0.190 HD
BRANCH  20  23
ATOM     23  C   UNL     1       2.078 -18.950 -41.198  1.00  0.00     0.033 C 
ATOM     24  C   UNL     1       1.436 -20.118 -41.369  1.00  0.00     0.030 C 
BRANCH  24  25
ATOM     25  C   UNL     1      -0.014 -20.284 -41.509  1.00  0.00     0.063 A 
ATOM     26  C   UNL     1      -0.647 -21.523 -41.470  1.00  0.00     0.028 A 
ATOM     27  N   UNL     1      -0.702 -19.124 -41.621  1.00  0.00    -0.257 NA
ATOM     28  C   UNL     1      -2.036 -21.575 -41.572  1.00  0.00     0.004 A 
ATOM     29  C   UNL     1      -2.048 -19.203 -41.720  1.00  0.00     0.111 A 
ATOM     30  C   UNL     1      -2.753 -20.393 -41.703  1.00  0.00     0.020 A 
ENDBRANCH  24  25
ENDBRANCH  20  23
ENDBRANCH   1  13
TORSDOF 5
ENDMDL
MODEL 18
REMARK minimizedAffinity -7.4804635
REMARK minimizedRMSD -1
REMARK SMILES CNC(=O)c1ccccc1Sc1ccc2c(/C=C/c3ccccn3)n[nH]c2c1
REMARK SMILES IDX 11 1 10 2 5 3 6 4 7 5 9 6 8 7 3 8 2 9 4 10 1 11 12 13 13 14
REMARK SMILES IDX 28 15 14 16 27 17 15 18 26 19 16 20 25 21 17 23 18 24 19 25
REMARK SMILES IDX 20 26 24 27 21 28 23 29 22 30
REMARK H PARENT 2 12 26 22
ROOT
ATOM      1  S   UNL     1       7.706 -14.761 -42.531  1.00  0.00    -0.089 SA
ENDROOT
BRANCH   1   2
ATOM      2  C   UNL     1       7.581 -12.975 -42.448  1.00  0.00     0.025 A 
ATOM      3  C   UNL     1       7.821 -12.221 -41.286  1.00  0.00     0.053 A 
ATOM      4  C   UNL     1       7.761 -10.819 -41.330  1.00  0.00     0.015 A 
ATOM      5  C   UNL     1       7.434 -10.162 -42.515  1.00  0.00     0.001 A 
ATOM      6  C   UNL     1       7.248 -12.297 -43.632  1.00  0.00     0.016 A 
ATOM      7  C   UNL     1       7.171 -10.903 -43.665  1.00  0.00     0.001 A 
BRANCH   3   8
ATOM      8  C   UNL     1       8.177 -12.816 -39.974  1.00  0.00     0.252 C 
ATOM      9  N   UNL     1       7.140 -12.999 -39.087  1.00  0.00    -0.355 N 
ATOM     10  O   UNL     1       9.347 -13.089 -39.729  1.00  0.00    -0.269 OA
ATOM     11  C   UNL     1       7.342 -13.665 -37.827  1.00  0.00     0.143 C 
ATOM     12  H   UNL     1       6.190 -12.883 -39.421  1.00  0.00     0.163 HD
ENDBRANCH   3   8
ENDBRANCH   1   2
BRANCH   1  13
ATOM     13  C   UNL     1       9.005 -14.938 -43.748  1.00  0.00     0.014 A 
ATOM     14  C   UNL     1      10.275 -14.423 -43.468  1.00  0.00     0.016 A 
ATOM     15  C   UNL     1       8.749 -15.566 -44.974  1.00  0.00     0.043 A 
ATOM     16  C   UNL     1      11.323 -14.537 -44.394  1.00  0.00     0.014 A 
ATOM     17  C   UNL     1       9.812 -15.676 -45.877  1.00  0.00     0.067 A 
ATOM     18  C   UNL     1      11.086 -15.183 -45.623  1.00  0.00     0.027 A 
ATOM     19  N   UNL     1       9.885 -16.238 -47.121  1.00  0.00    -0.277 N 
ATOM     20  C   UNL     1      11.845 -15.505 -46.791  1.00  0.00     0.093 A 
ATOM     21  N   UNL     1      11.095 -16.154 -47.694  1.00  0.00    -0.175 NA
ATOM     22  H   UNL     1       9.143 -16.700 -47.635  1.00  0.00     0.190 HD
BRANCH  20  23
ATOM     23  C   UNL     1      13.233 -15.187 -46.980  1.00  0.00     0.033 C 
ATOM     24  C   UNL     1      14.252 -15.825 -46.379  1.00  0.00     0.030 C 
BRANCH  24  25
ATOM     25  C   UNL     1      15.674 -15.521 -46.558  1.00  0.00     0.063 A 
ATOM     26  C   UNL     1      16.280 -14.378 -46.042  1.00  0.00     0.028 A 
ATOM     27  N   UNL     1      16.373 -16.473 -47.220  1.00  0.00    -0.257 NA
ATOM     28  C   UNL     1      17.649 -14.196 -46.231  1.00  0.00     0.004 A 
ATOM     29  C   UNL     1      17.698 -16.271 -47.390  1.00  0.00     0.111 A 
ATOM     30  C   UNL     1      18.375 -15.159 -46.921  1.00  0.00     0.020 A 
ENDBRANCH  24  25
ENDBRANCH  20  23
ENDBRANCH   1  13
TORSDOF 5
ENDMDL
MODEL 19
REMARK minimizedAffinity -7.39643002
REMARK minimizedRMSD -1
REMARK SMILES CNC(=O)c1ccccc1Sc1ccc2c(/C=C/c3ccccn3)n[nH]c2c1
REMARK SMILES IDX 11 1 10 2 5 3 6 4 7 5 9 6 8 7 3 8 2 9 4 10 1 11 12 13 13 14
REMARK SMILES IDX 28 15 14 16 27 17 15 18 26 19 16 20 25 21 17 23 18 24 19 25
REMARK SMILES IDX 20 26 24 27 21 28 23 29 22 30
REMARK H PARENT 2 12 26 22
ROOT
ATOM      1  S   UNL     1       4.471  -9.448 -46.275  1.00  0.00    -0.089 SA
ENDROOT
BRANCH   1   2
ATOM      2  C   UNL     1       5.339  -8.995 -44.774  1.00  0.00     0.025 A 
ATOM      3  C   UNL     1       4.863  -8.055 -43.842  1.00  0.00     0.053 A 
ATOM      4  C   UNL     1       5.581  -7.809 -42.660  1.00  0.00     0.015 A 
ATOM      5  C   UNL     1       6.785  -8.468 -42.414  1.00  0.00     0.001 A 
ATOM      6  C   UNL     1       6.556  -9.645 -44.512  1.00  0.00     0.016 A 
ATOM      7  C   UNL     1       7.274  -9.382 -43.344  1.00  0.00     0.001 A 
BRANCH   3   8
ATOM      8  C   UNL     1       3.597  -7.300 -44.003  1.00  0.00     0.252 C 
ATOM      9  N   UNL     1       3.716  -5.996 -44.430  1.00  0.00    -0.355 N 
ATOM     10  O   UNL     1       2.529  -7.840 -43.734  1.00  0.00    -0.269 OA
ATOM     11  C   UNL     1       2.555  -5.197 -44.726  1.00  0.00     0.143 C 
ATOM     12  H   UNL     1       4.617  -5.677 -44.767  1.00  0.00     0.163 HD
ENDBRANCH   3   8
ENDBRANCH   1   2
BRANCH   1  13
ATOM     13  C   UNL     1       3.477 -10.809 -45.675  1.00  0.00     0.014 A 
ATOM     14  C   UNL     1       4.112 -11.982 -45.251  1.00  0.00     0.016 A 
ATOM     15  C   UNL     1       2.079 -10.710 -45.649  1.00  0.00     0.043 A 
ATOM     16  C   UNL     1       3.371 -13.074 -44.776  1.00  0.00     0.014 A 
ATOM     17  C   UNL     1       1.363 -11.809 -45.162  1.00  0.00     0.067 A 
ATOM     18  C   UNL     1       1.966 -12.982 -44.725  1.00  0.00     0.027 A 
ATOM     19  N   UNL     1       0.021 -12.011 -44.998  1.00  0.00    -0.277 N 
ATOM     20  C   UNL     1       0.883 -13.824 -44.321  1.00  0.00     0.093 A 
ATOM     21  N   UNL     1      -0.297 -13.211 -44.490  1.00  0.00    -0.175 NA
ATOM     22  H   UNL     1      -0.731 -11.364 -45.208  1.00  0.00     0.190 HD
BRANCH  20  23
ATOM     23  C   UNL     1       1.031 -15.151 -43.793  1.00  0.00     0.033 C 
ATOM     24  C   UNL     1       0.250 -15.685 -42.837  1.00  0.00     0.030 C 
BRANCH  24  25
ATOM     25  C   UNL     1       0.380 -17.037 -42.286  1.00  0.00     0.063 A 
ATOM     26  C   UNL     1       1.488 -17.459 -41.555  1.00  0.00     0.028 A 
ATOM     27  N   UNL     1      -0.696 -17.833 -42.492  1.00  0.00    -0.257 NA
ATOM     28  C   UNL     1       1.501 -18.753 -41.036  1.00  0.00     0.004 A 
ATOM     29  C   UNL     1      -0.655 -19.083 -41.980  1.00  0.00     0.111 A 
ATOM     30  C   UNL     1       0.411 -19.584 -41.254  1.00  0.00     0.020 A 
ENDBRANCH  24  25
ENDBRANCH  20  23
ENDBRANCH   1  13
TORSDOF 5
ENDMDL
MODEL 20
REMARK minimizedAffinity -7.26887894
REMARK minimizedRMSD -1
REMARK SMILES CNC(=O)c1ccccc1Sc1ccc2c(/C=C/c3ccccn3)n[nH]c2c1
REMARK SMILES IDX 11 1 10 2 5 3 6 4 7 5 9 6 8 7 3 8 2 9 4 10 1 11 12 13 13 14
REMARK SMILES IDX 28 15 14 16 27 17 15 18 26 19 16 20 25 21 17 23 18 24 19 25
REMARK SMILES IDX 20 26 24 27 21 28 23 29 22 30
REMARK H PARENT 2 12 26 22
ROOT
ATOM      1  S   UNL     1       3.342 -13.331 -45.095  1.00  0.00    -0.089 SA
ENDROOT
BRANCH   1   2
ATOM      2  C   UNL     1       4.426 -11.919 -45.295  1.00  0.00     0.025 A 
ATOM      3  C   UNL     1       5.827 -11.978 -45.181  1.00  0.00     0.053 A 
ATOM      4  C   UNL     1       6.602 -10.831 -45.416  1.00  0.00     0.015 A 
ATOM      5  C   UNL     1       5.992  -9.618 -45.733  1.00  0.00     0.001 A 
ATOM      6  C   UNL     1       3.829 -10.687 -45.609  1.00  0.00     0.016 A 
ATOM      7  C   UNL     1       4.604  -9.546 -45.823  1.00  0.00     0.001 A 
BRANCH   3   8
ATOM      8  C   UNL     1       6.577 -13.215 -44.850  1.00  0.00     0.252 C 
ATOM      9  N   UNL     1       6.774 -13.468 -43.512  1.00  0.00    -0.355 N 
ATOM     10  O   UNL     1       7.002 -13.926 -45.754  1.00  0.00    -0.269 OA
ATOM     11  C   UNL     1       7.393 -14.688 -43.064  1.00  0.00     0.143 C 
ATOM     12  H   UNL     1       6.267 -12.910 -42.834  1.00  0.00     0.163 HD
ENDBRANCH   3   8
ENDBRANCH   1   2
BRANCH   1  13
ATOM     13  C   UNL     1       1.746 -12.533 -45.216  1.00  0.00     0.014 A 
ATOM     14  C   UNL     1       1.207 -11.912 -44.083  1.00  0.00     0.016 A 
ATOM     15  C   UNL     1       1.034 -12.546 -46.423  1.00  0.00     0.043 A 
ATOM     16  C   UNL     1      -0.042 -11.275 -44.132  1.00  0.00     0.014 A 
ATOM     17  C   UNL     1      -0.206 -11.897 -46.448  1.00  0.00     0.067 A 
ATOM     18  C   UNL     1      -0.761 -11.264 -45.344  1.00  0.00     0.027 A 
ATOM     19  N   UNL     1      -1.113 -11.724 -47.457  1.00  0.00    -0.277 N 
ATOM     20  C   UNL     1      -2.010 -10.745 -45.806  1.00  0.00     0.093 A 
ATOM     21  N   UNL     1      -2.206 -11.032 -47.102  1.00  0.00    -0.175 NA
ATOM     22  H   UNL     1      -1.042 -12.051 -48.414  1.00  0.00     0.190 HD
BRANCH  20  23
ATOM     23  C   UNL     1      -2.938 -10.004 -44.999  1.00  0.00     0.033 C 
ATOM     24  C   UNL     1      -3.211  -8.696 -45.152  1.00  0.00     0.030 C 
BRANCH  24  25
ATOM     25  C   UNL     1      -4.155  -7.920 -44.344  1.00  0.00     0.063 A 
ATOM     26  C   UNL     1      -4.851  -8.454 -43.263  1.00  0.00     0.028 A 
ATOM     27  N   UNL     1      -4.257  -6.617 -44.696  1.00  0.00    -0.257 NA
ATOM     28  C   UNL     1      -5.698  -7.625 -42.529  1.00  0.00     0.004 A 
ATOM     29  C   UNL     1      -5.086  -5.836 -43.969  1.00  0.00     0.111 A 
ATOM     30  C   UNL     1      -5.823  -6.290 -42.889  1.00  0.00     0.020 A 
ENDBRANCH  24  25
ENDBRANCH  20  23
ENDBRANCH   1  13
TORSDOF 5
ENDMDL
