MODEL 1
REMARK minimizedAffinity -9.56792068
REMARK minimizedRMSD -1
REMARK SMILES COc1cc2ncnc(Nc3cccc(Cl)c3F)c2cc1OC(=O)N1CCN(C)C[C@H]1C
REMARK SMILES IDX 3 1 4 2 5 3 6 4 7 5 8 6 9 7 19 8 20 9 21 10 2 11 1 12 22 13
REMARK SMILES IDX 23 14 24 15 25 16 26 17 31 18 27 19 30 20 28 21 32 22 29 23
REMARK SMILES IDX 10 24 11 26 12 27 17 28 13 29 15 30 14 31 18 32 16 33
REMARK H PARENT 10 25
ROOT
ATOM      1  C   UNL     1      -3.771 -17.919 -42.864  1.00  0.00     0.163 A 
ATOM      2  C   UNL     1      -4.201 -19.101 -42.257  1.00  0.00     0.079 A 
ATOM      3  C   UNL     1      -3.319 -20.137 -41.952  1.00  0.00     0.080 A 
ATOM      4  N   UNL     1      -3.815 -21.236 -41.378  1.00  0.00    -0.236 NA
ATOM      5  C   UNL     1      -2.947 -22.216 -41.105  1.00  0.00     0.224 A 
ATOM      6  N   UNL     1      -1.633 -22.199 -41.344  1.00  0.00    -0.219 NA
ATOM      7  C   UNL     1      -1.134 -21.083 -41.907  1.00  0.00     0.141 A 
ATOM      8  C   UNL     1      -1.957 -19.995 -42.258  1.00  0.00     0.047 A 
ATOM      9  C   UNL     1      -1.511 -18.812 -42.889  1.00  0.00     0.065 A 
ATOM     10  C   UNL     1      -2.416 -17.790 -43.165  1.00  0.00     0.175 A 
ENDROOT
BRANCH   1  11
ATOM     11  O   UNL     1      -4.572 -16.866 -43.212  1.00  0.00    -0.493 OA
ATOM     12  C   UNL     1      -5.903 -16.871 -42.712  1.00  0.00     0.278 C 
ENDBRANCH   1  11
BRANCH  10  13
ATOM     13  O   UNL     1      -1.950 -16.641 -43.807  1.00  0.00    -0.406 OA
BRANCH  13  14
ATOM     14  C   UNL     1      -0.668 -16.277 -43.405  1.00  0.00     0.415 C 
ATOM     15  O   UNL     1      -0.133 -16.663 -42.369  1.00  0.00    -0.224 OA
BRANCH  14  16
ATOM     16  N   UNL     1      -0.044 -15.448 -44.323  1.00  0.00    -0.303 N 
ATOM     17  C   UNL     1       0.875 -14.419 -43.856  1.00  0.00     0.139 C 
ATOM     18  C   UNL     1      -0.438 -15.369 -45.741  1.00  0.00     0.099 C 
ATOM     19  C   UNL     1       0.369 -13.004 -44.209  1.00  0.00     0.106 C 
ATOM     20  C   UNL     1       0.014 -14.031 -46.397  1.00  0.00     0.109 C 
ATOM     21  N   UNL     1      -0.285 -12.882 -45.531  1.00  0.00    -0.303 NA
ATOM     22  C   UNL     1       0.127 -16.547 -46.538  1.00  0.00     0.032 C 
ATOM     23  C   UNL     1       0.031 -11.613 -46.174  1.00  0.00     0.105 C 
ENDBRANCH  14  16
ENDBRANCH  13  14
ENDBRANCH  10  13
BRANCH   7  24
ATOM     24  N   UNL     1       0.261 -20.996 -42.152  1.00  0.00    -0.337 N 
ATOM     25  H   UNL     1       0.424 -20.916 -43.156  1.00  0.00     0.168 HD
BRANCH  24  26
ATOM     26  C   UNL     1       1.234 -20.254 -41.439  1.00  0.00     0.077 A 
ATOM     27  C   UNL     1       0.919 -19.457 -40.331  1.00  0.00     0.029 A 
ATOM     28  C   UNL     1       2.589 -20.405 -41.775  1.00  0.00     0.165 A 
ATOM     29  C   UNL     1       1.921 -18.791 -39.616  1.00  0.00     0.004 A 
ATOM     30  C   UNL     1       3.592 -19.744 -41.066  1.00  0.00     0.078 A 
ATOM     31  C   UNL     1       3.259 -18.930 -39.986  1.00  0.00     0.024 A 
ATOM     32  F   UNL     1       2.907 -21.200 -42.812  1.00  0.00    -0.203 F 
ATOM     33  Cl  UNL     1       5.246 -19.928 -41.508  1.00  0.00    -0.081 Cl
ENDBRANCH  24  26
ENDBRANCH   7  24
TORSDOF 6
ENDMDL
MODEL 2
REMARK minimizedAffinity -9.30871296
REMARK minimizedRMSD -1
REMARK SMILES COc1cc2ncnc(Nc3cccc(Cl)c3F)c2cc1OC(=O)N1CCN(C)C[C@H]1C
REMARK SMILES IDX 3 1 4 2 5 3 6 4 7 5 8 6 9 7 19 8 20 9 21 10 2 11 1 12 22 13
REMARK SMILES IDX 23 14 24 15 25 16 26 17 31 18 27 19 30 20 28 21 32 22 29 23
REMARK SMILES IDX 10 24 11 26 12 27 17 28 13 29 15 30 14 31 18 32 16 33
REMARK H PARENT 10 25
ROOT
ATOM      1  C   UNL     1       2.649  -8.516 -44.309  1.00  0.00     0.163 A 
ATOM      2  C   UNL     1       2.349  -7.170 -44.526  1.00  0.00     0.079 A 
ATOM      3  C   UNL     1       1.060  -6.742 -44.840  1.00  0.00     0.080 A 
ATOM      4  N   UNL     1       0.862  -5.437 -45.039  1.00  0.00    -0.236 NA
ATOM      5  C   UNL     1      -0.383  -5.057 -45.347  1.00  0.00     0.224 A 
ATOM      6  N   UNL     1      -1.447  -5.856 -45.469  1.00  0.00    -0.219 NA
ATOM      7  C   UNL     1      -1.247  -7.168 -45.252  1.00  0.00     0.141 A 
ATOM      8  C   UNL     1       0.026  -7.686 -44.941  1.00  0.00     0.047 A 
ATOM      9  C   UNL     1       0.319  -9.055 -44.742  1.00  0.00     0.065 A 
ATOM     10  C   UNL     1       1.614  -9.445 -44.414  1.00  0.00     0.175 A 
ENDROOT
BRANCH   1  11
ATOM     11  O   UNL     1       3.887  -9.019 -44.015  1.00  0.00    -0.493 OA
ATOM     12  C   UNL     1       4.938  -8.727 -44.926  1.00  0.00     0.278 C 
ENDBRANCH   1  11
BRANCH  10  13
ATOM     13  O   UNL     1       1.878 -10.806 -44.242  1.00  0.00    -0.406 OA
BRANCH  13  14
ATOM     14  C   UNL     1       2.011 -11.488 -45.448  1.00  0.00     0.415 C 
ATOM     15  O   UNL     1       2.868 -11.241 -46.292  1.00  0.00    -0.224 OA
BRANCH  14  16
ATOM     16  N   UNL     1       1.080 -12.507 -45.582  1.00  0.00    -0.303 N 
ATOM     17  C   UNL     1       1.088 -13.618 -44.640  1.00  0.00     0.139 C 
ATOM     18  C   UNL     1       0.231 -12.675 -46.773  1.00  0.00     0.099 C 
ATOM     19  C   UNL     1       1.387 -14.958 -45.345  1.00  0.00     0.106 C 
ATOM     20  C   UNL     1      -0.296 -14.134 -46.913  1.00  0.00     0.109 C 
ATOM     21  N   UNL     1       0.776 -15.114 -46.683  1.00  0.00    -0.303 NA
ATOM     22  C   UNL     1      -0.952 -11.704 -46.750  1.00  0.00     0.032 C 
ATOM     23  C   UNL     1       0.328 -16.481 -46.917  1.00  0.00     0.105 C 
ENDBRANCH  14  16
ENDBRANCH  13  14
ENDBRANCH  10  13
BRANCH   7  24
ATOM     24  N   UNL     1      -2.349  -8.059 -45.334  1.00  0.00    -0.337 N 
ATOM     25  H   UNL     1      -2.049  -8.928 -45.778  1.00  0.00     0.168 HD
BRANCH  24  26
ATOM     26  C   UNL     1      -3.338  -8.326 -44.356  1.00  0.00     0.077 A 
ATOM     27  C   UNL     1      -3.868  -7.333 -43.522  1.00  0.00     0.029 A 
ATOM     28  C   UNL     1      -3.901  -9.610 -44.287  1.00  0.00     0.165 A 
ATOM     29  C   UNL     1      -4.889  -7.628 -42.612  1.00  0.00     0.004 A 
ATOM     30  C   UNL     1      -4.920  -9.910 -43.383  1.00  0.00     0.078 A 
ATOM     31  C   UNL     1      -5.414  -8.919 -42.538  1.00  0.00     0.024 A 
ATOM     32  F   UNL     1      -3.428 -10.562 -45.112  1.00  0.00    -0.203 F 
ATOM     33  Cl  UNL     1      -5.583 -11.498 -43.303  1.00  0.00    -0.081 Cl
ENDBRANCH  24  26
ENDBRANCH   7  24
TORSDOF 6
ENDMDL
MODEL 3
REMARK minimizedAffinity -9.16546154
REMARK minimizedRMSD -1
REMARK SMILES COc1cc2ncnc(Nc3cccc(Cl)c3F)c2cc1OC(=O)N1CCN(C)C[C@H]1C
REMARK SMILES IDX 3 1 4 2 5 3 6 4 7 5 8 6 9 7 19 8 20 9 21 10 2 11 1 12 22 13
REMARK SMILES IDX 23 14 24 15 25 16 26 17 31 18 27 19 30 20 28 21 32 22 29 23
REMARK SMILES IDX 10 24 11 26 12 27 17 28 13 29 15 30 14 31 18 32 16 33
REMARK H PARENT 10 25
ROOT
ATOM      1  C   UNL     1      -2.251 -17.485 -43.160  1.00  0.00     0.163 A 
ATOM      2  C   UNL     1      -2.418 -18.808 -42.747  1.00  0.00     0.079 A 
ATOM      3  C   UNL     1      -1.391 -19.525 -42.133  1.00  0.00     0.080 A 
ATOM      4  N   UNL     1      -1.633 -20.788 -41.775  1.00  0.00    -0.236 NA
ATOM      5  C   UNL     1      -0.627 -21.453 -41.197  1.00  0.00     0.224 A 
ATOM      6  N   UNL     1       0.593 -20.973 -40.937  1.00  0.00    -0.219 NA
ATOM      7  C   UNL     1       0.827 -19.695 -41.284  1.00  0.00     0.141 A 
ATOM      8  C   UNL     1      -0.151 -18.904 -41.919  1.00  0.00     0.047 A 
ATOM      9  C   UNL     1       0.038 -17.571 -42.349  1.00  0.00     0.065 A 
ATOM     10  C   UNL     1      -1.014 -16.879 -42.944  1.00  0.00     0.175 A 
ENDROOT
BRANCH   1  11
ATOM     11  O   UNL     1      -3.199 -16.720 -43.784  1.00  0.00    -0.493 OA
ATOM     12  C   UNL     1      -4.560 -17.068 -43.564  1.00  0.00     0.278 C 
ENDBRANCH   1  11
BRANCH  10  13
ATOM     13  O   UNL     1      -0.792 -15.570 -43.376  1.00  0.00    -0.406 OA
BRANCH  13  14
ATOM     14  C   UNL     1       0.080 -15.497 -44.458  1.00  0.00     0.415 C 
ATOM     15  O   UNL     1      -0.010 -16.190 -45.468  1.00  0.00    -0.224 OA
BRANCH  14  16
ATOM     16  N   UNL     1       1.055 -14.527 -44.283  1.00  0.00    -0.303 N 
ATOM     17  C   UNL     1       0.762 -13.347 -43.482  1.00  0.00     0.139 C 
ATOM     18  C   UNL     1       2.303 -14.484 -45.065  1.00  0.00     0.099 C 
ATOM     19  C   UNL     1       0.840 -12.055 -44.323  1.00  0.00     0.106 C 
ATOM     20  C   UNL     1       2.936 -13.062 -45.076  1.00  0.00     0.109 C 
ATOM     21  N   UNL     1       1.923 -12.027 -45.332  1.00  0.00    -0.303 NA
ATOM     22  C   UNL     1       3.323 -15.495 -44.534  1.00  0.00     0.032 C 
ATOM     23  C   UNL     1       2.512 -10.700 -45.454  1.00  0.00     0.105 C 
ENDBRANCH  14  16
ENDBRANCH  13  14
ENDBRANCH  10  13
BRANCH   7  24
ATOM     24  N   UNL     1       2.095 -19.122 -41.001  1.00  0.00    -0.337 N 
ATOM     25  H   UNL     1       2.219 -19.059 -39.990  1.00  0.00     0.168 HD
BRANCH  24  26
ATOM     26  C   UNL     1       3.337 -19.381 -41.630  1.00  0.00     0.077 A 
ATOM     27  C   UNL     1       3.723 -20.660 -42.051  1.00  0.00     0.029 A 
ATOM     28  C   UNL     1       4.175 -18.303 -41.956  1.00  0.00     0.165 A 
ATOM     29  C   UNL     1       4.932 -20.860 -42.726  1.00  0.00     0.004 A 
ATOM     30  C   UNL     1       5.381 -18.495 -42.630  1.00  0.00     0.078 A 
ATOM     31  C   UNL     1       5.765 -19.778 -43.013  1.00  0.00     0.024 A 
ATOM     32  F   UNL     1       3.795 -17.064 -41.593  1.00  0.00    -0.203 F 
ATOM     33  Cl  UNL     1       6.402 -17.160 -43.002  1.00  0.00    -0.081 Cl
ENDBRANCH  24  26
ENDBRANCH   7  24
TORSDOF 6
ENDMDL
MODEL 4
REMARK minimizedAffinity -9.01686096
REMARK minimizedRMSD -1
REMARK SMILES COc1cc2ncnc(Nc3cccc(Cl)c3F)c2cc1OC(=O)N1CCN(C)C[C@H]1C
REMARK SMILES IDX 3 1 4 2 5 3 6 4 7 5 8 6 9 7 19 8 20 9 21 10 2 11 1 12 22 13
REMARK SMILES IDX 23 14 24 15 25 16 26 17 31 18 27 19 30 20 28 21 32 22 29 23
REMARK SMILES IDX 10 24 11 26 12 27 17 28 13 29 15 30 14 31 18 32 16 33
REMARK H PARENT 10 25
ROOT
ATOM      1  C   UNL     1      -1.702 -17.231 -43.008  1.00  0.00     0.163 A 
ATOM      2  C   UNL     1      -1.558 -18.479 -42.398  1.00  0.00     0.079 A 
ATOM      3  C   UNL     1      -0.348 -18.895 -41.846  1.00  0.00     0.080 A 
ATOM      4  N   UNL     1      -0.295 -20.107 -41.288  1.00  0.00    -0.236 NA
ATOM      5  C   UNL     1       0.881 -20.483 -40.774  1.00  0.00     0.224 A 
ATOM      6  N   UNL     1       2.005 -19.761 -40.760  1.00  0.00    -0.219 NA
ATOM      7  C   UNL     1       1.944 -18.534 -41.308  1.00  0.00     0.141 A 
ATOM      8  C   UNL     1       0.764 -18.040 -41.898  1.00  0.00     0.047 A 
ATOM      9  C   UNL     1       0.638 -16.781 -42.529  1.00  0.00     0.065 A 
ATOM     10  C   UNL     1      -0.590 -16.391 -43.056  1.00  0.00     0.175 A 
ENDROOT
BRANCH   1  11
ATOM     11  O   UNL     1      -2.846 -16.755 -43.588  1.00  0.00    -0.493 OA
ATOM     12  C   UNL     1      -4.070 -17.367 -43.204  1.00  0.00     0.278 C 
ENDBRANCH   1  11
BRANCH  10  13
ATOM     13  O   UNL     1      -0.680 -15.149 -43.691  1.00  0.00    -0.406 OA
BRANCH  13  14
ATOM     14  C   UNL     1      -0.126 -15.153 -44.967  1.00  0.00     0.415 C 
ATOM     15  O   UNL     1      -0.693 -15.586 -45.967  1.00  0.00    -0.224 OA
BRANCH  14  16
ATOM     16  N   UNL     1       1.137 -14.582 -44.994  1.00  0.00    -0.303 N 
ATOM     17  C   UNL     1       2.204 -15.228 -45.746  1.00  0.00     0.139 C 
ATOM     18  C   UNL     1       1.548 -13.484 -44.101  1.00  0.00     0.099 C 
ATOM     19  C   UNL     1       3.360 -15.672 -44.824  1.00  0.00     0.106 C 
ATOM     20  C   UNL     1       3.095 -13.406 -43.947  1.00  0.00     0.109 C 
ATOM     21  N   UNL     1       3.679 -14.737 -43.722  1.00  0.00    -0.303 NA
ATOM     22  C   UNL     1       1.014 -12.139 -44.598  1.00  0.00     0.032 C 
ATOM     23  C   UNL     1       5.112 -14.672 -43.467  1.00  0.00     0.105 C 
ENDBRANCH  14  16
ENDBRANCH  13  14
ENDBRANCH  10  13
BRANCH   7  24
ATOM     24  N   UNL     1       3.100 -17.709 -41.290  1.00  0.00    -0.337 N 
ATOM     25  H   UNL     1       2.872 -16.818 -40.849  1.00  0.00     0.168 HD
BRANCH  24  26
ATOM     26  C   UNL     1       4.435 -18.075 -40.994  1.00  0.00     0.077 A 
ATOM     27  C   UNL     1       4.900 -18.260 -39.685  1.00  0.00     0.029 A 
ATOM     28  C   UNL     1       5.310 -18.380 -42.049  1.00  0.00     0.165 A 
ATOM     29  C   UNL     1       6.211 -18.683 -39.440  1.00  0.00     0.004 A 
ATOM     30  C   UNL     1       6.618 -18.803 -41.812  1.00  0.00     0.078 A 
ATOM     31  C   UNL     1       7.073 -18.951 -40.504  1.00  0.00     0.024 A 
ATOM     32  F   UNL     1       4.862 -18.245 -43.311  1.00  0.00    -0.203 F 
ATOM     33  Cl  UNL     1       7.679 -19.153 -43.122  1.00  0.00    -0.081 Cl
ENDBRANCH  24  26
ENDBRANCH   7  24
TORSDOF 6
ENDMDL
MODEL 5
REMARK minimizedAffinity -8.91397285
REMARK minimizedRMSD -1
REMARK SMILES COc1cc2ncnc(Nc3cccc(Cl)c3F)c2cc1OC(=O)N1CCN(C)C[C@H]1C
REMARK SMILES IDX 3 1 4 2 5 3 6 4 7 5 8 6 9 7 19 8 20 9 21 10 2 11 1 12 22 13
REMARK SMILES IDX 23 14 24 15 25 16 26 17 31 18 27 19 30 20 28 21 32 22 29 23
REMARK SMILES IDX 10 24 11 26 12 27 17 28 13 29 15 30 14 31 18 32 16 33
REMARK H PARENT 10 25
ROOT
ATOM      1  C   UNL     1      -1.546 -17.183 -43.012  1.00  0.00     0.163 A 
ATOM      2  C   UNL     1      -1.442 -18.448 -42.430  1.00  0.00     0.079 A 
ATOM      3  C   UNL     1      -0.264 -18.889 -41.829  1.00  0.00     0.080 A 
ATOM      4  N   UNL     1      -0.248 -20.115 -41.302  1.00  0.00    -0.236 NA
ATOM      5  C   UNL     1       0.898 -20.515 -40.740  1.00  0.00     0.224 A 
ATOM      6  N   UNL     1       2.025 -19.803 -40.649  1.00  0.00    -0.219 NA
ATOM      7  C   UNL     1       2.000 -18.562 -41.167  1.00  0.00     0.141 A 
ATOM      8  C   UNL     1       0.855 -18.042 -41.802  1.00  0.00     0.047 A 
ATOM      9  C   UNL     1       0.770 -16.766 -42.404  1.00  0.00     0.065 A 
ATOM     10  C   UNL     1      -0.427 -16.351 -42.981  1.00  0.00     0.175 A 
ENDROOT
BRANCH   1  11
ATOM     11  O   UNL     1      -2.656 -16.682 -43.636  1.00  0.00    -0.493 OA
ATOM     12  C   UNL     1      -3.901 -17.302 -43.340  1.00  0.00     0.278 C 
ENDBRANCH   1  11
BRANCH  10  13
ATOM     13  O   UNL     1      -0.476 -15.093 -43.585  1.00  0.00    -0.406 OA
BRANCH  13  14
ATOM     14  C   UNL     1       0.246 -15.034 -44.774  1.00  0.00     0.415 C 
ATOM     15  O   UNL     1      -0.044 -15.657 -45.791  1.00  0.00    -0.224 OA
BRANCH  14  16
ATOM     16  N   UNL     1       1.323 -14.166 -44.693  1.00  0.00    -0.303 N 
ATOM     17  C   UNL     1       1.336 -13.127 -43.671  1.00  0.00     0.139 C 
ATOM     18  C   UNL     1       2.356 -14.057 -45.738  1.00  0.00     0.099 C 
ATOM     19  C   UNL     1       1.342 -11.716 -44.296  1.00  0.00     0.106 C 
ATOM     20  C   UNL     1       3.102 -12.692 -45.681  1.00  0.00     0.109 C 
ATOM     21  N   UNL     1       2.161 -11.574 -45.520  1.00  0.00    -0.303 NA
ATOM     22  C   UNL     1       3.369 -15.200 -45.633  1.00  0.00     0.032 C 
ATOM     23  C   UNL     1       2.831 -10.281 -45.575  1.00  0.00     0.105 C 
ENDBRANCH  14  16
ENDBRANCH  13  14
ENDBRANCH  10  13
BRANCH   7  24
ATOM     24  N   UNL     1       3.159 -17.748 -41.068  1.00  0.00    -0.337 N 
ATOM     25  H   UNL     1       3.276 -17.442 -40.102  1.00  0.00     0.168 HD
BRANCH  24  26
ATOM     26  C   UNL     1       4.423 -17.941 -41.676  1.00  0.00     0.077 A 
ATOM     27  C   UNL     1       4.730 -17.468 -42.958  1.00  0.00     0.029 A 
ATOM     28  C   UNL     1       5.457 -18.531 -40.930  1.00  0.00     0.165 A 
ATOM     29  C   UNL     1       6.012 -17.626 -43.496  1.00  0.00     0.004 A 
ATOM     30  C   UNL     1       6.737 -18.691 -41.460  1.00  0.00     0.078 A 
ATOM     31  C   UNL     1       7.016 -18.243 -42.749  1.00  0.00     0.024 A 
ATOM     32  F   UNL     1       5.184 -18.953 -39.682  1.00  0.00    -0.203 F 
ATOM     33  Cl  UNL     1       7.984 -19.434 -40.533  1.00  0.00    -0.081 Cl
ENDBRANCH  24  26
ENDBRANCH   7  24
TORSDOF 6
ENDMDL
MODEL 6
REMARK minimizedAffinity -8.91156673
REMARK minimizedRMSD -1
REMARK SMILES COc1cc2ncnc(Nc3cccc(Cl)c3F)c2cc1OC(=O)N1CCN(C)C[C@H]1C
REMARK SMILES IDX 3 1 4 2 5 3 6 4 7 5 8 6 9 7 19 8 20 9 21 10 2 11 1 12 22 13
REMARK SMILES IDX 23 14 24 15 25 16 26 17 31 18 27 19 30 20 28 21 32 22 29 23
REMARK SMILES IDX 10 24 11 26 12 27 17 28 13 29 15 30 14 31 18 32 16 33
REMARK H PARENT 10 25
ROOT
ATOM      1  C   UNL     1      -1.639 -17.169 -42.996  1.00  0.00     0.163 A 
ATOM      2  C   UNL     1      -1.507 -18.431 -42.413  1.00  0.00     0.079 A 
ATOM      3  C   UNL     1      -0.302 -18.868 -41.864  1.00  0.00     0.080 A 
ATOM      4  N   UNL     1      -0.260 -20.091 -41.333  1.00  0.00    -0.236 NA
ATOM      5  C   UNL     1       0.911 -20.487 -40.822  1.00  0.00     0.224 A 
ATOM      6  N   UNL     1       2.039 -19.773 -40.785  1.00  0.00    -0.219 NA
ATOM      7  C   UNL     1       1.989 -18.533 -41.306  1.00  0.00     0.141 A 
ATOM      8  C   UNL     1       0.815 -18.018 -41.892  1.00  0.00     0.047 A 
ATOM      9  C   UNL     1       0.701 -16.745 -42.495  1.00  0.00     0.065 A 
ATOM     10  C   UNL     1      -0.522 -16.335 -43.019  1.00  0.00     0.175 A 
ENDROOT
BRANCH   1  11
ATOM     11  O   UNL     1      -2.777 -16.673 -43.571  1.00  0.00    -0.493 OA
ATOM     12  C   UNL     1      -4.011 -17.257 -43.175  1.00  0.00     0.278 C 
ENDBRANCH   1  11
BRANCH  10  13
ATOM     13  O   UNL     1      -0.600 -15.079 -43.626  1.00  0.00    -0.406 OA
BRANCH  13  14
ATOM     14  C   UNL     1       0.232 -14.962 -44.736  1.00  0.00     0.415 C 
ATOM     15  O   UNL     1       0.550 -15.898 -45.464  1.00  0.00    -0.224 OA
BRANCH  14  16
ATOM     16  N   UNL     1       0.643 -13.655 -44.949  1.00  0.00    -0.303 N 
ATOM     17  C   UNL     1       1.525 -13.011 -43.986  1.00  0.00     0.139 C 
ATOM     18  C   UNL     1       0.043 -12.774 -45.967  1.00  0.00     0.099 C 
ATOM     19  C   UNL     1       0.852 -11.788 -43.328  1.00  0.00     0.106 C 
ATOM     20  C   UNL     1       0.277 -11.269 -45.645  1.00  0.00     0.109 C 
ATOM     21  N   UNL     1       0.006 -10.975 -44.230  1.00  0.00    -0.303 NA
ATOM     22  C   UNL     1       0.588 -13.091 -47.362  1.00  0.00     0.032 C 
ATOM     23  C   UNL     1       0.114  -9.552 -43.935  1.00  0.00     0.105 C 
ENDBRANCH  14  16
ENDBRANCH  13  14
ENDBRANCH  10  13
BRANCH   7  24
ATOM     24  N   UNL     1       3.150 -17.717 -41.264  1.00  0.00    -0.337 N 
ATOM     25  H   UNL     1       2.925 -16.833 -40.809  1.00  0.00     0.168 HD
BRANCH  24  26
ATOM     26  C   UNL     1       4.480 -18.097 -40.962  1.00  0.00     0.077 A 
ATOM     27  C   UNL     1       4.958 -18.217 -39.651  1.00  0.00     0.029 A 
ATOM     28  C   UNL     1       5.334 -18.483 -42.009  1.00  0.00     0.165 A 
ATOM     29  C   UNL     1       6.261 -18.657 -39.398  1.00  0.00     0.004 A 
ATOM     30  C   UNL     1       6.634 -18.923 -41.763  1.00  0.00     0.078 A 
ATOM     31  C   UNL     1       7.104 -19.006 -40.454  1.00  0.00     0.024 A 
ATOM     32  F   UNL     1       4.872 -18.410 -43.271  1.00  0.00    -0.203 F 
ATOM     33  Cl  UNL     1       7.670 -19.373 -43.063  1.00  0.00    -0.081 Cl
ENDBRANCH  24  26
ENDBRANCH   7  24
TORSDOF 6
ENDMDL
MODEL 7
REMARK minimizedAffinity -8.86828136
REMARK minimizedRMSD -1
REMARK SMILES COc1cc2ncnc(Nc3cccc(Cl)c3F)c2cc1OC(=O)N1CCN(C)C[C@H]1C
REMARK SMILES IDX 3 1 4 2 5 3 6 4 7 5 8 6 9 7 19 8 20 9 21 10 2 11 1 12 22 13
REMARK SMILES IDX 23 14 24 15 25 16 26 17 31 18 27 19 30 20 28 21 32 22 29 23
REMARK SMILES IDX 10 24 11 26 12 27 17 28 13 29 15 30 14 31 18 32 16 33
REMARK H PARENT 10 25
ROOT
ATOM      1  C   UNL     1      -0.006  -8.587 -44.558  1.00  0.00     0.163 A 
ATOM      2  C   UNL     1       1.299  -8.538 -45.053  1.00  0.00     0.079 A 
ATOM      3  C   UNL     1       2.121  -9.663 -45.080  1.00  0.00     0.080 A 
ATOM      4  N   UNL     1       3.358  -9.528 -45.564  1.00  0.00    -0.236 NA
ATOM      5  C   UNL     1       4.126 -10.622 -45.569  1.00  0.00     0.224 A 
ATOM      6  N   UNL     1       3.774 -11.838 -45.144  1.00  0.00    -0.219 NA
ATOM      7  C   UNL     1       2.521 -11.976 -44.673  1.00  0.00     0.141 A 
ATOM      8  C   UNL     1       1.629 -10.887 -44.600  1.00  0.00     0.047 A 
ATOM      9  C   UNL     1       0.317 -10.948 -44.078  1.00  0.00     0.065 A 
ATOM     10  C   UNL     1      -0.483  -9.808 -44.082  1.00  0.00     0.175 A 
ENDROOT
BRANCH   1  11
ATOM     11  O   UNL     1      -0.868  -7.528 -44.480  1.00  0.00    -0.493 OA
ATOM     12  C   UNL     1      -0.380  -6.261 -44.902  1.00  0.00     0.278 C 
ENDBRANCH   1  11
BRANCH  10  13
ATOM     13  O   UNL     1      -1.769  -9.893 -43.543  1.00  0.00    -0.406 OA
BRANCH  13  14
ATOM     14  C   UNL     1      -2.735 -10.207 -44.493  1.00  0.00     0.415 C 
ATOM     15  O   UNL     1      -2.550 -10.963 -45.444  1.00  0.00    -0.224 OA
BRANCH  14  16
ATOM     16  N   UNL     1      -3.950  -9.593 -44.232  1.00  0.00    -0.303 N 
ATOM     17  C   UNL     1      -4.332  -8.406 -44.984  1.00  0.00     0.139 C 
ATOM     18  C   UNL     1      -4.783  -9.914 -43.061  1.00  0.00     0.099 C 
ATOM     19  C   UNL     1      -4.486  -7.176 -44.063  1.00  0.00     0.106 C 
ATOM     20  C   UNL     1      -5.764  -8.758 -42.709  1.00  0.00     0.109 C 
ATOM     21  N   UNL     1      -5.087  -7.453 -42.740  1.00  0.00    -0.303 NA
ATOM     22  C   UNL     1      -5.572 -11.207 -43.282  1.00  0.00     0.032 C 
ATOM     23  C   UNL     1      -5.962  -6.371 -42.308  1.00  0.00     0.105 C 
ENDBRANCH  14  16
ENDBRANCH  13  14
ENDBRANCH  10  13
BRANCH   7  24
ATOM     24  N   UNL     1       2.081 -13.254 -44.240  1.00  0.00    -0.337 N 
ATOM     25  H   UNL     1       1.754 -13.190 -43.275  1.00  0.00     0.168 HD
BRANCH  24  26
ATOM     26  C   UNL     1       1.315 -14.207 -44.953  1.00  0.00     0.077 A 
ATOM     27  C   UNL     1       1.528 -14.494 -46.308  1.00  0.00     0.029 A 
ATOM     28  C   UNL     1       0.376 -14.987 -44.258  1.00  0.00     0.165 A 
ATOM     29  C   UNL     1       0.790 -15.489 -46.958  1.00  0.00     0.004 A 
ATOM     30  C   UNL     1      -0.362 -15.981 -44.900  1.00  0.00     0.078 A 
ATOM     31  C   UNL     1      -0.160 -16.231 -46.256  1.00  0.00     0.024 A 
ATOM     32  F   UNL     1       0.191 -14.749 -42.947  1.00  0.00    -0.203 F 
ATOM     33  Cl  UNL     1      -1.522 -16.912 -44.032  1.00  0.00    -0.081 Cl
ENDBRANCH  24  26
ENDBRANCH   7  24
TORSDOF 6
ENDMDL
MODEL 8
REMARK minimizedAffinity -8.86367416
REMARK minimizedRMSD -1
REMARK SMILES COc1cc2ncnc(Nc3cccc(Cl)c3F)c2cc1OC(=O)N1CCN(C)C[C@H]1C
REMARK SMILES IDX 3 1 4 2 5 3 6 4 7 5 8 6 9 7 19 8 20 9 21 10 2 11 1 12 22 13
REMARK SMILES IDX 23 14 24 15 25 16 26 17 31 18 27 19 30 20 28 21 32 22 29 23
REMARK SMILES IDX 10 24 11 26 12 27 17 28 13 29 15 30 14 31 18 32 16 33
REMARK H PARENT 10 25
ROOT
ATOM      1  C   UNL     1       0.765 -13.928 -45.436  1.00  0.00     0.163 A 
ATOM      2  C   UNL     1       2.038 -13.490 -45.806  1.00  0.00     0.079 A 
ATOM      3  C   UNL     1       3.187 -13.911 -45.136  1.00  0.00     0.080 A 
ATOM      4  N   UNL     1       4.365 -13.438 -45.551  1.00  0.00    -0.236 NA
ATOM      5  C   UNL     1       5.448 -13.851 -44.884  1.00  0.00     0.224 A 
ATOM      6  N   UNL     1       5.465 -14.696 -43.849  1.00  0.00    -0.219 NA
ATOM      7  C   UNL     1       4.278 -15.183 -43.445  1.00  0.00     0.141 A 
ATOM      8  C   UNL     1       3.068 -14.802 -44.058  1.00  0.00     0.047 A 
ATOM      9  C   UNL     1       1.784 -15.239 -43.661  1.00  0.00     0.065 A 
ATOM     10  C   UNL     1       0.660 -14.812 -44.362  1.00  0.00     0.175 A 
ENDROOT
BRANCH   1  11
ATOM     11  O   UNL     1      -0.410 -13.551 -46.027  1.00  0.00    -0.493 OA
ATOM     12  C   UNL     1      -0.369 -12.420 -46.888  1.00  0.00     0.278 C 
ENDBRANCH   1  11
BRANCH  10  13
ATOM     13  O   UNL     1      -0.598 -15.245 -43.935  1.00  0.00    -0.406 OA
BRANCH  13  14
ATOM     14  C   UNL     1      -0.897 -16.537 -44.355  1.00  0.00     0.415 C 
ATOM     15  O   UNL     1      -0.703 -16.958 -45.493  1.00  0.00    -0.224 OA
BRANCH  14  16
ATOM     16  N   UNL     1      -1.417 -17.316 -43.333  1.00  0.00    -0.303 N 
ATOM     17  C   UNL     1      -0.594 -17.624 -42.172  1.00  0.00     0.139 C 
ATOM     18  C   UNL     1      -2.676 -18.072 -43.452  1.00  0.00     0.099 C 
ATOM     19  C   UNL     1      -0.340 -19.141 -42.042  1.00  0.00     0.106 C 
ATOM     20  C   UNL     1      -2.750 -19.246 -42.433  1.00  0.00     0.109 C 
ATOM     21  N   UNL     1      -1.490 -20.003 -42.396  1.00  0.00    -0.303 NA
ATOM     22  C   UNL     1      -3.889 -17.156 -43.268  1.00  0.00     0.032 C 
ATOM     23  C   UNL     1      -1.576 -21.171 -41.529  1.00  0.00     0.105 C 
ENDBRANCH  14  16
ENDBRANCH  13  14
ENDBRANCH  10  13
BRANCH   7  24
ATOM     24  N   UNL     1       4.240 -16.112 -42.372  1.00  0.00    -0.337 N 
ATOM     25  H   UNL     1       3.512 -15.837 -41.713  1.00  0.00     0.168 HD
BRANCH  24  26
ATOM     26  C   UNL     1       4.343 -17.523 -42.427  1.00  0.00     0.077 A 
ATOM     27  C   UNL     1       5.349 -18.184 -43.143  1.00  0.00     0.029 A 
ATOM     28  C   UNL     1       3.476 -18.302 -41.644  1.00  0.00     0.165 A 
ATOM     29  C   UNL     1       5.451 -19.580 -43.119  1.00  0.00     0.004 A 
ATOM     30  C   UNL     1       3.572 -19.693 -41.615  1.00  0.00     0.078 A 
ATOM     31  C   UNL     1       4.559 -20.337 -42.358  1.00  0.00     0.024 A 
ATOM     32  F   UNL     1       2.531 -17.675 -40.920  1.00  0.00    -0.203 F 
ATOM     33  Cl  UNL     1       2.485 -20.629 -40.662  1.00  0.00    -0.081 Cl
ENDBRANCH  24  26
ENDBRANCH   7  24
TORSDOF 6
ENDMDL
MODEL 9
REMARK minimizedAffinity -8.79353333
REMARK minimizedRMSD -1
REMARK SMILES COc1cc2ncnc(Nc3cccc(Cl)c3F)c2cc1OC(=O)N1CCN(C)C[C@H]1C
REMARK SMILES IDX 3 1 4 2 5 3 6 4 7 5 8 6 9 7 19 8 20 9 21 10 2 11 1 12 22 13
REMARK SMILES IDX 23 14 24 15 25 16 26 17 31 18 27 19 30 20 28 21 32 22 29 23
REMARK SMILES IDX 10 24 11 26 12 27 17 28 13 29 15 30 14 31 18 32 16 33
REMARK H PARENT 10 25
ROOT
ATOM      1  C   UNL     1       3.062  -7.984 -44.046  1.00  0.00     0.163 A 
ATOM      2  C   UNL     1       2.713  -6.655 -44.291  1.00  0.00     0.079 A 
ATOM      3  C   UNL     1       1.467  -6.303 -44.809  1.00  0.00     0.080 A 
ATOM      4  N   UNL     1       1.217  -5.009 -45.020  1.00  0.00    -0.236 NA
ATOM      5  C   UNL     1       0.018  -4.702 -45.527  1.00  0.00     0.224 A 
ATOM      6  N   UNL     1      -0.955  -5.564 -45.834  1.00  0.00    -0.219 NA
ATOM      7  C   UNL     1      -0.706  -6.866 -45.605  1.00  0.00     0.141 A 
ATOM      8  C   UNL     1       0.530  -7.309 -45.094  1.00  0.00     0.047 A 
ATOM      9  C   UNL     1       0.877  -8.660 -44.868  1.00  0.00     0.065 A 
ATOM     10  C   UNL     1       2.124  -8.975 -44.334  1.00  0.00     0.175 A 
ENDROOT
BRANCH   1  11
ATOM     11  O   UNL     1       4.266  -8.414 -43.557  1.00  0.00    -0.493 OA
ATOM     12  C   UNL     1       4.953  -7.543 -42.668  1.00  0.00     0.278 C 
ENDBRANCH   1  11
BRANCH  10  13
ATOM     13  O   UNL     1       2.447 -10.320 -44.139  1.00  0.00    -0.406 OA
BRANCH  13  14
ATOM     14  C   UNL     1       2.784 -10.972 -45.321  1.00  0.00     0.415 C 
ATOM     15  O   UNL     1       3.390 -10.448 -46.252  1.00  0.00    -0.224 OA
BRANCH  14  16
ATOM     16  N   UNL     1       2.385 -12.299 -45.322  1.00  0.00    -0.303 N 
ATOM     17  C   UNL     1       1.029 -12.643 -45.729  1.00  0.00     0.139 C 
ATOM     18  C   UNL     1       3.166 -13.380 -44.696  1.00  0.00     0.099 C 
ATOM     19  C   UNL     1       0.239 -13.296 -44.575  1.00  0.00     0.106 C 
ATOM     20  C   UNL     1       2.283 -14.617 -44.358  1.00  0.00     0.109 C 
ATOM     21  N   UNL     1       1.021 -14.216 -43.719  1.00  0.00    -0.303 NA
ATOM     22  C   UNL     1       4.330 -13.810 -45.591  1.00  0.00     0.032 C 
ATOM     23  C   UNL     1       0.230 -15.365 -43.297  1.00  0.00     0.105 C 
ENDBRANCH  14  16
ENDBRANCH  13  14
ENDBRANCH  10  13
BRANCH   7  24
ATOM     24  N   UNL     1      -1.717  -7.823 -45.881  1.00  0.00    -0.337 N 
ATOM     25  H   UNL     1      -1.295  -8.749 -45.952  1.00  0.00     0.168 HD
BRANCH  24  26
ATOM     26  C   UNL     1      -3.014  -7.918 -45.319  1.00  0.00     0.077 A 
ATOM     27  C   UNL     1      -4.139  -7.322 -45.902  1.00  0.00     0.029 A 
ATOM     28  C   UNL     1      -3.213  -8.736 -44.195  1.00  0.00     0.165 A 
ATOM     29  C   UNL     1      -5.413  -7.494 -45.347  1.00  0.00     0.004 A 
ATOM     30  C   UNL     1      -4.479  -8.913 -43.639  1.00  0.00     0.078 A 
ATOM     31  C   UNL     1      -5.584  -8.286 -44.212  1.00  0.00     0.024 A 
ATOM     32  F   UNL     1      -2.145  -9.347 -43.651  1.00  0.00    -0.203 F 
ATOM     33  Cl  UNL     1      -4.697  -9.905 -42.248  1.00  0.00    -0.081 Cl
ENDBRANCH  24  26
ENDBRANCH   7  24
TORSDOF 6
ENDMDL
MODEL 10
REMARK minimizedAffinity -8.78948307
REMARK minimizedRMSD -1
REMARK SMILES COc1cc2ncnc(Nc3cccc(Cl)c3F)c2cc1OC(=O)N1CCN(C)C[C@H]1C
REMARK SMILES IDX 3 1 4 2 5 3 6 4 7 5 8 6 9 7 19 8 20 9 21 10 2 11 1 12 22 13
REMARK SMILES IDX 23 14 24 15 25 16 26 17 31 18 27 19 30 20 28 21 32 22 29 23
REMARK SMILES IDX 10 24 11 26 12 27 17 28 13 29 15 30 14 31 18 32 16 33
REMARK H PARENT 10 25
ROOT
ATOM      1  C   UNL     1       3.063  -9.055 -44.748  1.00  0.00     0.163 A 
ATOM      2  C   UNL     1       2.885  -7.681 -44.577  1.00  0.00     0.079 A 
ATOM      3  C   UNL     1       1.632  -7.080 -44.687  1.00  0.00     0.080 A 
ATOM      4  N   UNL     1       1.551  -5.758 -44.515  1.00  0.00    -0.236 NA
ATOM      5  C   UNL     1       0.339  -5.208 -44.636  1.00  0.00     0.224 A 
ATOM      6  N   UNL     1      -0.800  -5.853 -44.905  1.00  0.00    -0.219 NA
ATOM      7  C   UNL     1      -0.717  -7.187 -45.061  1.00  0.00     0.141 A 
ATOM      8  C   UNL     1       0.511  -7.873 -44.977  1.00  0.00     0.047 A 
ATOM      9  C   UNL     1       0.679  -9.262 -45.172  1.00  0.00     0.065 A 
ATOM     10  C   UNL     1       1.942  -9.832 -45.038  1.00  0.00     0.175 A 
ENDROOT
BRANCH   1  11
ATOM     11  O   UNL     1       4.257  -9.719 -44.674  1.00  0.00    -0.493 OA
ATOM     12  C   UNL     1       5.178  -9.518 -45.739  1.00  0.00     0.278 C 
ENDBRANCH   1  11
BRANCH  10  13
ATOM     13  O   UNL     1       2.081 -11.205 -45.255  1.00  0.00    -0.406 OA
BRANCH  13  14
ATOM     14  C   UNL     1       1.327 -11.972 -44.373  1.00  0.00     0.415 C 
ATOM     15  O   UNL     1       1.306 -11.808 -43.156  1.00  0.00    -0.224 OA
BRANCH  14  16
ATOM     16  N   UNL     1       0.570 -12.933 -45.025  1.00  0.00    -0.303 N 
ATOM     17  C   UNL     1       0.327 -14.217 -44.383  1.00  0.00     0.139 C 
ATOM     18  C   UNL     1       0.197 -12.841 -46.448  1.00  0.00     0.099 C 
ATOM     19  C   UNL     1       0.940 -15.382 -45.190  1.00  0.00     0.106 C 
ATOM     20  C   UNL     1      -0.149 -14.233 -47.052  1.00  0.00     0.109 C 
ATOM     21  N   UNL     1       0.841 -15.248 -46.660  1.00  0.00    -0.303 NA
ATOM     22  C   UNL     1      -0.983 -11.887 -46.648  1.00  0.00     0.032 C 
ATOM     23  C   UNL     1       0.594 -16.532 -47.304  1.00  0.00     0.105 C 
ENDBRANCH  14  16
ENDBRANCH  13  14
ENDBRANCH  10  13
BRANCH   7  24
ATOM     24  N   UNL     1      -1.901  -7.929 -45.315  1.00  0.00    -0.337 N 
ATOM     25  H   UNL     1      -1.702  -8.661 -45.997  1.00  0.00     0.168 HD
BRANCH  24  26
ATOM     26  C   UNL     1      -2.873  -8.376 -44.387  1.00  0.00     0.077 A 
ATOM     27  C   UNL     1      -2.854  -9.659 -43.825  1.00  0.00     0.029 A 
ATOM     28  C   UNL     1      -3.835  -7.468 -43.915  1.00  0.00     0.165 A 
ATOM     29  C   UNL     1      -3.797 -10.038 -42.864  1.00  0.00     0.004 A 
ATOM     30  C   UNL     1      -4.777  -7.840 -42.956  1.00  0.00     0.078 A 
ATOM     31  C   UNL     1      -4.764  -9.130 -42.431  1.00  0.00     0.024 A 
ATOM     32  F   UNL     1      -3.838  -6.220 -44.417  1.00  0.00    -0.203 F 
ATOM     33  Cl  UNL     1      -5.960  -6.715 -42.406  1.00  0.00    -0.081 Cl
ENDBRANCH  24  26
ENDBRANCH   7  24
TORSDOF 6
ENDMDL
MODEL 11
REMARK minimizedAffinity -8.77362919
REMARK minimizedRMSD -1
REMARK SMILES COc1cc2ncnc(Nc3cccc(Cl)c3F)c2cc1OC(=O)N1CCN(C)C[C@H]1C
REMARK SMILES IDX 3 1 4 2 5 3 6 4 7 5 8 6 9 7 19 8 20 9 21 10 2 11 1 12 22 13
REMARK SMILES IDX 23 14 24 15 25 16 26 17 31 18 27 19 30 20 28 21 32 22 29 23
REMARK SMILES IDX 10 24 11 26 12 27 17 28 13 29 15 30 14 31 18 32 16 33
REMARK H PARENT 10 25
ROOT
ATOM      1  C   UNL     1      -4.002  -8.876 -44.051  1.00  0.00     0.163 A 
ATOM      2  C   UNL     1      -4.202  -7.517 -43.798  1.00  0.00     0.079 A 
ATOM      3  C   UNL     1      -3.246  -6.557 -44.127  1.00  0.00     0.080 A 
ATOM      4  N   UNL     1      -3.515  -5.280 -43.845  1.00  0.00    -0.236 NA
ATOM      5  C   UNL     1      -2.576  -4.382 -44.163  1.00  0.00     0.224 A 
ATOM      6  N   UNL     1      -1.400  -4.639 -44.742  1.00  0.00    -0.219 NA
ATOM      7  C   UNL     1      -1.139  -5.925 -45.040  1.00  0.00     0.141 A 
ATOM      8  C   UNL     1      -2.045  -6.959 -44.732  1.00  0.00     0.047 A 
ATOM      9  C   UNL     1      -1.821  -8.333 -44.976  1.00  0.00     0.065 A 
ATOM     10  C   UNL     1      -2.804  -9.264 -44.651  1.00  0.00     0.175 A 
ENDROOT
BRANCH   1  11
ATOM     11  O   UNL     1      -4.879  -9.880 -43.744  1.00  0.00    -0.493 OA
ATOM     12  C   UNL     1      -5.685  -9.706 -42.586  1.00  0.00     0.278 C 
ENDBRANCH   1  11
BRANCH  10  13
ATOM     13  O   UNL     1      -2.547 -10.616 -44.886  1.00  0.00    -0.406 OA
BRANCH  13  14
ATOM     14  C   UNL     1      -1.858 -10.838 -46.074  1.00  0.00     0.415 C 
ATOM     15  O   UNL     1      -2.174 -10.354 -47.158  1.00  0.00    -0.224 OA
BRANCH  14  16
ATOM     16  N   UNL     1      -0.749 -11.650 -45.896  1.00  0.00    -0.303 N 
ATOM     17  C   UNL     1      -0.213 -12.396 -47.026  1.00  0.00     0.139 C 
ATOM     18  C   UNL     1      -0.215 -12.011 -44.571  1.00  0.00     0.099 C 
ATOM     19  C   UNL     1      -0.300 -13.919 -46.794  1.00  0.00     0.106 C 
ATOM     20  C   UNL     1       0.639 -13.312 -44.621  1.00  0.00     0.109 C 
ATOM     21  N   UNL     1      -0.028 -14.360 -45.407  1.00  0.00    -0.303 NA
ATOM     22  C   UNL     1       0.620 -10.871 -43.983  1.00  0.00     0.032 C 
ATOM     23  C   UNL     1       0.704 -15.619 -45.375  1.00  0.00     0.105 C 
ENDBRANCH  14  16
ENDBRANCH  13  14
ENDBRANCH  10  13
BRANCH   7  24
ATOM     24  N   UNL     1       0.081  -6.252 -45.687  1.00  0.00    -0.337 N 
ATOM     25  H   UNL     1       0.180  -5.685 -46.529  1.00  0.00     0.168 HD
BRANCH  24  26
ATOM     26  C   UNL     1       1.350  -6.485 -45.103  1.00  0.00     0.077 A 
ATOM     27  C   UNL     1       1.963  -5.578 -44.229  1.00  0.00     0.029 A 
ATOM     28  C   UNL     1       1.980  -7.723 -45.311  1.00  0.00     0.165 A 
ATOM     29  C   UNL     1       3.189  -5.878 -43.625  1.00  0.00     0.004 A 
ATOM     30  C   UNL     1       3.201  -8.028 -44.711  1.00  0.00     0.078 A 
ATOM     31  C   UNL     1       3.813  -7.102 -43.869  1.00  0.00     0.024 A 
ATOM     32  F   UNL     1       1.380  -8.619 -46.117  1.00  0.00    -0.203 F 
ATOM     33  Cl  UNL     1       3.964  -9.546 -44.995  1.00  0.00    -0.081 Cl
ENDBRANCH  24  26
ENDBRANCH   7  24
TORSDOF 6
ENDMDL
MODEL 12
REMARK minimizedAffinity -8.56571293
REMARK minimizedRMSD -1
REMARK SMILES COc1cc2ncnc(Nc3cccc(Cl)c3F)c2cc1OC(=O)N1CCN(C)C[C@H]1C
REMARK SMILES IDX 3 1 4 2 5 3 6 4 7 5 8 6 9 7 19 8 20 9 21 10 2 11 1 12 22 13
REMARK SMILES IDX 23 14 24 15 25 16 26 17 31 18 27 19 30 20 28 21 32 22 29 23
REMARK SMILES IDX 10 24 11 26 12 27 17 28 13 29 15 30 14 31 18 32 16 33
REMARK H PARENT 10 25
ROOT
ATOM      1  C   UNL     1      -3.486  -8.786 -43.914  1.00  0.00     0.163 A 
ATOM      2  C   UNL     1      -3.555  -7.415 -43.658  1.00  0.00     0.079 A 
ATOM      3  C   UNL     1      -2.550  -6.538 -44.062  1.00  0.00     0.080 A 
ATOM      4  N   UNL     1      -2.692  -5.243 -43.772  1.00  0.00    -0.236 NA
ATOM      5  C   UNL     1      -1.708  -4.426 -44.164  1.00  0.00     0.224 A 
ATOM      6  N   UNL     1      -0.602  -4.780 -44.824  1.00  0.00    -0.219 NA
ATOM      7  C   UNL     1      -0.471  -6.084 -45.130  1.00  0.00     0.141 A 
ATOM      8  C   UNL     1      -1.433  -7.039 -44.749  1.00  0.00     0.047 A 
ATOM      9  C   UNL     1      -1.342  -8.427 -44.998  1.00  0.00     0.065 A 
ATOM     10  C   UNL     1      -2.371  -9.273 -44.595  1.00  0.00     0.175 A 
ENDROOT
BRANCH   1  11
ATOM     11  O   UNL     1      -4.418  -9.714 -43.536  1.00  0.00    -0.493 OA
ATOM     12  C   UNL     1      -5.782  -9.316 -43.574  1.00  0.00     0.278 C 
ENDBRANCH   1  11
BRANCH  10  13
ATOM     13  O   UNL     1      -2.244 -10.643 -44.837  1.00  0.00    -0.406 OA
BRANCH  13  14
ATOM     14  C   UNL     1      -1.634 -10.923 -46.056  1.00  0.00     0.415 C 
ATOM     15  O   UNL     1      -1.963 -10.418 -47.127  1.00  0.00    -0.224 OA
BRANCH  14  16
ATOM     16  N   UNL     1      -0.586 -11.820 -45.926  1.00  0.00    -0.303 N 
ATOM     17  C   UNL     1      -0.150 -12.591 -47.082  1.00  0.00     0.139 C 
ATOM     18  C   UNL     1      -0.035 -12.237 -44.625  1.00  0.00     0.099 C 
ATOM     19  C   UNL     1      -0.347 -14.106 -46.861  1.00  0.00     0.106 C 
ATOM     20  C   UNL     1       0.713 -13.599 -44.719  1.00  0.00     0.109 C 
ATOM     21  N   UNL     1      -0.061 -14.583 -45.490  1.00  0.00    -0.303 NA
ATOM     22  C   UNL     1       0.908 -11.173 -44.058  1.00  0.00     0.032 C 
ATOM     23  C   UNL     1       0.572 -15.896 -45.496  1.00  0.00     0.105 C 
ENDBRANCH  14  16
ENDBRANCH  13  14
ENDBRANCH  10  13
BRANCH   7  24
ATOM     24  N   UNL     1       0.669  -6.511 -45.861  1.00  0.00    -0.337 N 
ATOM     25  H   UNL     1       0.987  -5.754 -46.466  1.00  0.00     0.168 HD
BRANCH  24  26
ATOM     26  C   UNL     1       1.775  -7.267 -45.401  1.00  0.00     0.077 A 
ATOM     27  C   UNL     1       2.276  -8.377 -46.092  1.00  0.00     0.029 A 
ATOM     28  C   UNL     1       2.478  -6.827 -44.268  1.00  0.00     0.165 A 
ATOM     29  C   UNL     1       3.411  -9.057 -45.635  1.00  0.00     0.004 A 
ATOM     30  C   UNL     1       3.610  -7.499 -43.808  1.00  0.00     0.078 A 
ATOM     31  C   UNL     1       4.077  -8.622 -44.489  1.00  0.00     0.024 A 
ATOM     32  F   UNL     1       2.029  -5.737 -43.620  1.00  0.00    -0.203 F 
ATOM     33  Cl  UNL     1       4.446  -6.953 -42.405  1.00  0.00    -0.081 Cl
ENDBRANCH  24  26
ENDBRANCH   7  24
TORSDOF 6
ENDMDL
MODEL 13
REMARK minimizedAffinity -8.53110409
REMARK minimizedRMSD -1
REMARK SMILES COc1cc2ncnc(Nc3cccc(Cl)c3F)c2cc1OC(=O)N1CCN(C)C[C@H]1C
REMARK SMILES IDX 3 1 4 2 5 3 6 4 7 5 8 6 9 7 19 8 20 9 21 10 2 11 1 12 22 13
REMARK SMILES IDX 23 14 24 15 25 16 26 17 31 18 27 19 30 20 28 21 32 22 29 23
REMARK SMILES IDX 10 24 11 26 12 27 17 28 13 29 15 30 14 31 18 32 16 33
REMARK H PARENT 10 25
ROOT
ATOM      1  C   UNL     1       5.808 -16.328 -44.214  1.00  0.00     0.163 A 
ATOM      2  C   UNL     1       6.275 -17.569 -43.779  1.00  0.00     0.079 A 
ATOM      3  C   UNL     1       5.583 -18.331 -42.839  1.00  0.00     0.080 A 
ATOM      4  N   UNL     1       6.103 -19.504 -42.473  1.00  0.00    -0.236 NA
ATOM      5  C   UNL     1       5.422 -20.208 -41.563  1.00  0.00     0.224 A 
ATOM      6  N   UNL     1       4.268 -19.854 -40.991  1.00  0.00    -0.219 NA
ATOM      7  C   UNL     1       3.737 -18.678 -41.374  1.00  0.00     0.141 A 
ATOM      8  C   UNL     1       4.378 -17.842 -42.310  1.00  0.00     0.047 A 
ATOM      9  C   UNL     1       3.902 -16.578 -42.727  1.00  0.00     0.065 A 
ATOM     10  C   UNL     1       4.611 -15.852 -43.680  1.00  0.00     0.175 A 
ENDROOT
BRANCH   1  11
ATOM     11  O   UNL     1       6.435 -15.513 -45.117  1.00  0.00    -0.493 OA
ATOM     12  C   UNL     1       6.518 -15.975 -46.459  1.00  0.00     0.278 C 
ENDBRANCH   1  11
BRANCH  10  13
ATOM     13  O   UNL     1       4.127 -14.597 -44.059  1.00  0.00    -0.406 OA
BRANCH  13  14
ATOM     14  C   UNL     1       3.148 -14.669 -45.045  1.00  0.00     0.415 C 
ATOM     15  O   UNL     1       3.078 -15.561 -45.888  1.00  0.00    -0.224 OA
BRANCH  14  16
ATOM     16  N   UNL     1       2.233 -13.632 -44.955  1.00  0.00    -0.303 N 
ATOM     17  C   UNL     1       2.095 -12.696 -46.063  1.00  0.00     0.139 C 
ATOM     18  C   UNL     1       1.557 -13.256 -43.702  1.00  0.00     0.099 C 
ATOM     19  C   UNL     1       2.474 -11.259 -45.642  1.00  0.00     0.106 C 
ATOM     20  C   UNL     1       1.038 -11.788 -43.737  1.00  0.00     0.109 C 
ATOM     21  N   UNL     1       2.055 -10.873 -44.276  1.00  0.00    -0.303 NA
ATOM     22  C   UNL     1       0.395 -14.203 -43.395  1.00  0.00     0.032 C 
ATOM     23  C   UNL     1       1.627  -9.482 -44.216  1.00  0.00     0.105 C 
ENDBRANCH  14  16
ENDBRANCH  13  14
ENDBRANCH  10  13
BRANCH   7  24
ATOM     24  N   UNL     1       2.495 -18.267 -40.824  1.00  0.00    -0.337 N 
ATOM     25  H   UNL     1       2.559 -17.292 -40.534  1.00  0.00     0.168 HD
BRANCH  24  26
ATOM     26  C   UNL     1       1.189 -18.552 -41.294  1.00  0.00     0.077 A 
ATOM     27  C   UNL     1       0.442 -17.646 -42.057  1.00  0.00     0.029 A 
ATOM     28  C   UNL     1       0.655 -19.834 -41.090  1.00  0.00     0.165 A 
ATOM     29  C   UNL     1      -0.819 -17.992 -42.554  1.00  0.00     0.004 A 
ATOM     30  C   UNL     1      -0.601 -20.186 -41.584  1.00  0.00     0.078 A 
ATOM     31  C   UNL     1      -1.345 -19.262 -42.314  1.00  0.00     0.024 A 
ATOM     32  F   UNL     1       1.381 -20.727 -40.393  1.00  0.00    -0.203 F 
ATOM     33  Cl  UNL     1      -1.245 -21.759 -41.305  1.00  0.00    -0.081 Cl
ENDBRANCH  24  26
ENDBRANCH   7  24
TORSDOF 6
ENDMDL
MODEL 14
REMARK minimizedAffinity -8.52866268
REMARK minimizedRMSD -1
REMARK SMILES COc1cc2ncnc(Nc3cccc(Cl)c3F)c2cc1OC(=O)N1CCN(C)C[C@H]1C
REMARK SMILES IDX 3 1 4 2 5 3 6 4 7 5 8 6 9 7 19 8 20 9 21 10 2 11 1 12 22 13
REMARK SMILES IDX 23 14 24 15 25 16 26 17 31 18 27 19 30 20 28 21 32 22 29 23
REMARK SMILES IDX 10 24 11 26 12 27 17 28 13 29 15 30 14 31 18 32 16 33
REMARK H PARENT 10 25
ROOT
ATOM      1  C   UNL     1       0.962 -10.389 -45.173  1.00  0.00     0.163 A 
ATOM      2  C   UNL     1       1.976 -11.230 -45.633  1.00  0.00     0.079 A 
ATOM      3  C   UNL     1       2.110 -12.542 -45.181  1.00  0.00     0.080 A 
ATOM      4  N   UNL     1       3.112 -13.276 -45.668  1.00  0.00    -0.236 NA
ATOM      5  C   UNL     1       3.221 -14.528 -45.208  1.00  0.00     0.224 A 
ATOM      6  N   UNL     1       2.419 -15.115 -44.315  1.00  0.00    -0.219 NA
ATOM      7  C   UNL     1       1.400 -14.377 -43.839  1.00  0.00     0.141 A 
ATOM      8  C   UNL     1       1.200 -13.040 -44.235  1.00  0.00     0.047 A 
ATOM      9  C   UNL     1       0.179 -12.193 -43.746  1.00  0.00     0.065 A 
ATOM     10  C   UNL     1       0.065 -10.894 -44.232  1.00  0.00     0.175 A 
ENDROOT
BRANCH   1  11
ATOM     11  O   UNL     1       0.773  -9.088 -45.552  1.00  0.00    -0.493 OA
ATOM     12  C   UNL     1       1.657  -8.118 -45.006  1.00  0.00     0.278 C 
ENDBRANCH   1  11
BRANCH  10  13
ATOM     13  O   UNL     1      -0.941 -10.074 -43.716  1.00  0.00    -0.406 OA
BRANCH  13  14
ATOM     14  C   UNL     1      -2.069 -10.024 -44.530  1.00  0.00     0.415 C 
ATOM     15  O   UNL     1      -2.540 -10.992 -45.121  1.00  0.00    -0.224 OA
BRANCH  14  16
ATOM     16  N   UNL     1      -2.627  -8.756 -44.578  1.00  0.00    -0.303 N 
ATOM     17  C   UNL     1      -2.492  -7.955 -45.787  1.00  0.00     0.139 C 
ATOM     18  C   UNL     1      -3.141  -8.052 -43.390  1.00  0.00     0.099 C 
ATOM     19  C   UNL     1      -1.692  -6.661 -45.524  1.00  0.00     0.106 C 
ATOM     20  C   UNL     1      -3.194  -6.511 -43.603  1.00  0.00     0.109 C 
ATOM     21  N   UNL     1      -1.957  -6.013 -44.221  1.00  0.00    -0.303 NA
ATOM     22  C   UNL     1      -4.531  -8.564 -43.003  1.00  0.00     0.032 C 
ATOM     23  C   UNL     1      -1.944  -4.559 -44.328  1.00  0.00     0.105 C 
ENDBRANCH  14  16
ENDBRANCH  13  14
ENDBRANCH  10  13
BRANCH   7  24
ATOM     24  N   UNL     1       0.497 -14.961 -42.913  1.00  0.00    -0.337 N 
ATOM     25  H   UNL     1      -0.421 -14.527 -43.015  1.00  0.00     0.168 HD
BRANCH  24  26
ATOM     26  C   UNL     1       0.354 -16.327 -42.567  1.00  0.00     0.077 A 
ATOM     27  C   UNL     1       1.306 -17.022 -41.810  1.00  0.00     0.029 A 
ATOM     28  C   UNL     1      -0.839 -16.993 -42.891  1.00  0.00     0.165 A 
ATOM     29  C   UNL     1       1.096 -18.354 -41.437  1.00  0.00     0.004 A 
ATOM     30  C   UNL     1      -1.055 -18.320 -42.521  1.00  0.00     0.078 A 
ATOM     31  C   UNL     1      -0.084 -19.007 -41.796  1.00  0.00     0.024 A 
ATOM     32  F   UNL     1      -1.778 -16.323 -43.583  1.00  0.00    -0.203 F 
ATOM     33  Cl  UNL     1      -2.518 -19.123 -42.947  1.00  0.00    -0.081 Cl
ENDBRANCH  24  26
ENDBRANCH   7  24
TORSDOF 6
ENDMDL
MODEL 15
REMARK minimizedAffinity -8.52235031
REMARK minimizedRMSD -1
REMARK SMILES COc1cc2ncnc(Nc3cccc(Cl)c3F)c2cc1OC(=O)N1CCN(C)C[C@H]1C
REMARK SMILES IDX 3 1 4 2 5 3 6 4 7 5 8 6 9 7 19 8 20 9 21 10 2 11 1 12 22 13
REMARK SMILES IDX 23 14 24 15 25 16 26 17 31 18 27 19 30 20 28 21 32 22 29 23
REMARK SMILES IDX 10 24 11 26 12 27 17 28 13 29 15 30 14 31 18 32 16 33
REMARK H PARENT 10 25
ROOT
ATOM      1  C   UNL     1       1.899 -11.903 -45.681  1.00  0.00     0.163 A 
ATOM      2  C   UNL     1       0.676 -12.278 -46.239  1.00  0.00     0.079 A 
ATOM      3  C   UNL     1      -0.391 -11.387 -46.347  1.00  0.00     0.080 A 
ATOM      4  N   UNL     1      -1.528 -11.830 -46.888  1.00  0.00    -0.236 NA
ATOM      5  C   UNL     1      -2.537 -10.956 -46.969  1.00  0.00     0.224 A 
ATOM      6  N   UNL     1      -2.514  -9.681 -46.569  1.00  0.00    -0.219 NA
ATOM      7  C   UNL     1      -1.361  -9.234 -46.039  1.00  0.00     0.141 A 
ATOM      8  C   UNL     1      -0.238 -10.071 -45.884  1.00  0.00     0.047 A 
ATOM      9  C   UNL     1       0.988  -9.682 -45.299  1.00  0.00     0.065 A 
ATOM     10  C   UNL     1       2.038 -10.593 -45.223  1.00  0.00     0.175 A 
ENDROOT
BRANCH   1  11
ATOM     11  O   UNL     1       2.986 -12.719 -45.523  1.00  0.00    -0.493 OA
ATOM     12  C   UNL     1       2.888 -13.748 -44.547  1.00  0.00     0.278 C 
ENDBRANCH   1  11
BRANCH  10  13
ATOM     13  O   UNL     1       3.232 -10.187 -44.622  1.00  0.00    -0.406 OA
BRANCH  13  14
ATOM     14  C   UNL     1       3.916  -9.232 -45.368  1.00  0.00     0.415 C 
ATOM     15  O   UNL     1       4.288  -9.396 -46.527  1.00  0.00    -0.224 OA
BRANCH  14  16
ATOM     16  N   UNL     1       4.109  -8.054 -44.664  1.00  0.00    -0.303 N 
ATOM     17  C   UNL     1       5.329  -7.868 -43.890  1.00  0.00     0.139 C 
ATOM     18  C   UNL     1       3.043  -7.063 -44.438  1.00  0.00     0.099 C 
ATOM     19  C   UNL     1       5.028  -7.716 -42.384  1.00  0.00     0.106 C 
ATOM     20  C   UNL     1       3.343  -6.152 -43.212  1.00  0.00     0.109 C 
ATOM     21  N   UNL     1       3.810  -6.940 -42.062  1.00  0.00    -0.303 NA
ATOM     22  C   UNL     1       2.824  -6.194 -45.680  1.00  0.00     0.032 C 
ATOM     23  C   UNL     1       3.992  -6.119 -40.872  1.00  0.00     0.105 C 
ENDBRANCH  14  16
ENDBRANCH  13  14
ENDBRANCH  10  13
BRANCH   7  24
ATOM     24  N   UNL     1      -1.268  -7.878 -45.628  1.00  0.00    -0.337 N 
ATOM     25  H   UNL     1      -0.643  -7.376 -46.257  1.00  0.00     0.168 HD
BRANCH  24  26
ATOM     26  C   UNL     1      -2.305  -7.023 -45.183  1.00  0.00     0.077 A 
ATOM     27  C   UNL     1      -2.615  -5.812 -45.816  1.00  0.00     0.029 A 
ATOM     28  C   UNL     1      -3.139  -7.447 -44.136  1.00  0.00     0.165 A 
ATOM     29  C   UNL     1      -3.690  -5.028 -45.382  1.00  0.00     0.004 A 
ATOM     30  C   UNL     1      -4.212  -6.670 -43.699  1.00  0.00     0.078 A 
ATOM     31  C   UNL     1      -4.487  -5.454 -44.319  1.00  0.00     0.024 A 
ATOM     32  F   UNL     1      -2.876  -8.628 -43.547  1.00  0.00    -0.203 F 
ATOM     33  Cl  UNL     1      -5.209  -7.202 -42.400  1.00  0.00    -0.081 Cl
ENDBRANCH  24  26
ENDBRANCH   7  24
TORSDOF 6
ENDMDL
MODEL 16
REMARK minimizedAffinity -8.50542927
REMARK minimizedRMSD -1
REMARK SMILES COc1cc2ncnc(Nc3cccc(Cl)c3F)c2cc1OC(=O)N1CCN(C)C[C@H]1C
REMARK SMILES IDX 3 1 4 2 5 3 6 4 7 5 8 6 9 7 19 8 20 9 21 10 2 11 1 12 22 13
REMARK SMILES IDX 23 14 24 15 25 16 26 17 31 18 27 19 30 20 28 21 32 22 29 23
REMARK SMILES IDX 10 24 11 26 12 27 17 28 13 29 15 30 14 31 18 32 16 33
REMARK H PARENT 10 25
ROOT
ATOM      1  C   UNL     1       0.720  -6.884 -44.896  1.00  0.00     0.163 A 
ATOM      2  C   UNL     1      -0.629  -7.245 -44.899  1.00  0.00     0.079 A 
ATOM      3  C   UNL     1      -1.040  -8.562 -45.101  1.00  0.00     0.080 A 
ATOM      4  N   UNL     1      -2.350  -8.820 -45.095  1.00  0.00    -0.236 NA
ATOM      5  C   UNL     1      -2.714 -10.090 -45.301  1.00  0.00     0.224 A 
ATOM      6  N   UNL     1      -1.895 -11.125 -45.505  1.00  0.00    -0.219 NA
ATOM      7  C   UNL     1      -0.575 -10.864 -45.494  1.00  0.00     0.141 A 
ATOM      8  C   UNL     1      -0.075  -9.560 -45.308  1.00  0.00     0.047 A 
ATOM      9  C   UNL     1       1.293  -9.206 -45.327  1.00  0.00     0.065 A 
ATOM     10  C   UNL     1       1.669  -7.884 -45.105  1.00  0.00     0.175 A 
ENDROOT
BRANCH   1  11
ATOM     11  O   UNL     1       1.204  -5.616 -44.723  1.00  0.00    -0.493 OA
ATOM     12  C   UNL     1       0.974  -4.685 -45.773  1.00  0.00     0.278 C 
ENDBRANCH   1  11
BRANCH  10  13
ATOM     13  O   UNL     1       3.027  -7.560 -45.148  1.00  0.00    -0.406 OA
BRANCH  13  14
ATOM     14  C   UNL     1       3.770  -8.206 -44.165  1.00  0.00     0.415 C 
ATOM     15  O   UNL     1       3.456  -8.252 -42.979  1.00  0.00    -0.224 OA
BRANCH  14  16
ATOM     16  N   UNL     1       4.900  -8.823 -44.680  1.00  0.00    -0.303 N 
ATOM     17  C   UNL     1       4.758  -9.831 -45.722  1.00  0.00     0.139 C 
ATOM     18  C   UNL     1       6.234  -8.710 -44.066  1.00  0.00     0.099 C 
ATOM     19  C   UNL     1       5.266 -11.210 -45.250  1.00  0.00     0.106 C 
ATOM     20  C   UNL     1       7.169  -9.883 -44.483  1.00  0.00     0.109 C 
ATOM     21  N   UNL     1       6.475 -11.177 -44.398  1.00  0.00    -0.303 NA
ATOM     22  C   UNL     1       6.895  -7.377 -44.422  1.00  0.00     0.032 C 
ATOM     23  C   UNL     1       7.365 -12.296 -44.679  1.00  0.00     0.105 C 
ENDBRANCH  14  16
ENDBRANCH  13  14
ENDBRANCH  10  13
BRANCH   7  24
ATOM     24  N   UNL     1       0.343 -11.932 -45.672  1.00  0.00    -0.337 N 
ATOM     25  H   UNL     1       1.190 -11.743 -45.136  1.00  0.00     0.168 HD
BRANCH  24  26
ATOM     26  C   UNL     1       0.078 -13.323 -45.692  1.00  0.00     0.077 A 
ATOM     27  C   UNL     1      -0.232 -14.021 -46.866  1.00  0.00     0.029 A 
ATOM     28  C   UNL     1       0.243 -14.067 -44.512  1.00  0.00     0.165 A 
ATOM     29  C   UNL     1      -0.424 -15.406 -46.851  1.00  0.00     0.004 A 
ATOM     30  C   UNL     1       0.054 -15.449 -44.491  1.00  0.00     0.078 A 
ATOM     31  C   UNL     1      -0.286 -16.122 -45.662  1.00  0.00     0.024 A 
ATOM     32  F   UNL     1       0.582 -13.414 -43.386  1.00  0.00    -0.203 F 
ATOM     33  Cl  UNL     1       0.243 -16.338 -43.028  1.00  0.00    -0.081 Cl
ENDBRANCH  24  26
ENDBRANCH   7  24
TORSDOF 6
ENDMDL
MODEL 17
REMARK minimizedAffinity -8.47804546
REMARK minimizedRMSD -1
REMARK SMILES COc1cc2ncnc(Nc3cccc(Cl)c3F)c2cc1OC(=O)N1CCN(C)C[C@H]1C
REMARK SMILES IDX 3 1 4 2 5 3 6 4 7 5 8 6 9 7 19 8 20 9 21 10 2 11 1 12 22 13
REMARK SMILES IDX 23 14 24 15 25 16 26 17 31 18 27 19 30 20 28 21 32 22 29 23
REMARK SMILES IDX 10 24 11 26 12 27 17 28 13 29 15 30 14 31 18 32 16 33
REMARK H PARENT 10 25
ROOT
ATOM      1  C   UNL     1      -2.015  -9.942 -44.799  1.00  0.00     0.163 A 
ATOM      2  C   UNL     1      -2.020  -8.548 -44.865  1.00  0.00     0.079 A 
ATOM      3  C   UNL     1      -0.846  -7.812 -45.014  1.00  0.00     0.080 A 
ATOM      4  N   UNL     1      -0.939  -6.481 -45.062  1.00  0.00    -0.236 NA
ATOM      5  C   UNL     1       0.204  -5.801 -45.196  1.00  0.00     0.224 A 
ATOM      6  N   UNL     1       1.429  -6.325 -45.294  1.00  0.00    -0.219 NA
ATOM      7  C   UNL     1       1.518  -7.667 -45.262  1.00  0.00     0.141 A 
ATOM      8  C   UNL     1       0.382  -8.485 -45.103  1.00  0.00     0.047 A 
ATOM      9  C   UNL     1       0.405  -9.896 -45.018  1.00  0.00     0.065 A 
ATOM     10  C   UNL     1      -0.789 -10.601 -44.886  1.00  0.00     0.175 A 
ENDROOT
BRANCH   1  11
ATOM     11  O   UNL     1      -3.118 -10.736 -44.636  1.00  0.00    -0.493 OA
ATOM     12  C   UNL     1      -4.216 -10.182 -43.923  1.00  0.00     0.278 C 
ENDBRANCH   1  11
BRANCH  10  13
ATOM     13  O   UNL     1      -0.735 -11.993 -44.785  1.00  0.00    -0.406 OA
BRANCH  13  14
ATOM     14  C   UNL     1      -0.370 -12.608 -45.979  1.00  0.00     0.415 C 
ATOM     15  O   UNL     1      -0.609 -12.152 -47.094  1.00  0.00    -0.224 OA
BRANCH  14  16
ATOM     16  N   UNL     1       0.323 -13.790 -45.771  1.00  0.00    -0.303 N 
ATOM     17  C   UNL     1       0.979 -14.025 -44.492  1.00  0.00     0.139 C 
ATOM     18  C   UNL     1       0.659 -14.732 -46.853  1.00  0.00     0.099 C 
ATOM     19  C   UNL     1       2.509 -14.155 -44.654  1.00  0.00     0.106 C 
ATOM     20  C   UNL     1       1.860 -15.648 -46.476  1.00  0.00     0.109 C 
ATOM     21  N   UNL     1       2.953 -14.875 -45.868  1.00  0.00    -0.303 NA
ATOM     22  C   UNL     1      -0.547 -15.597 -47.226  1.00  0.00     0.032 C 
ATOM     23  C   UNL     1       4.128 -15.697 -45.609  1.00  0.00     0.105 C 
ENDBRANCH  14  16
ENDBRANCH  13  14
ENDBRANCH  10  13
BRANCH   7  24
ATOM     24  N   UNL     1       2.792  -8.280 -45.397  1.00  0.00    -0.337 N 
ATOM     25  H   UNL     1       3.064  -8.283 -46.380  1.00  0.00     0.168 HD
BRANCH  24  26
ATOM     26  C   UNL     1       3.934  -8.121 -44.574  1.00  0.00     0.077 A 
ATOM     27  C   UNL     1       3.862  -7.659 -43.254  1.00  0.00     0.029 A 
ATOM     28  C   UNL     1       5.183  -8.549 -45.051  1.00  0.00     0.165 A 
ATOM     29  C   UNL     1       5.008  -7.577 -42.457  1.00  0.00     0.004 A 
ATOM     30  C   UNL     1       6.330  -8.472 -44.261  1.00  0.00     0.078 A 
ATOM     31  C   UNL     1       6.246  -7.979 -42.961  1.00  0.00     0.024 A 
ATOM     32  F   UNL     1       5.258  -9.033 -46.305  1.00  0.00    -0.203 F 
ATOM     33  Cl  UNL     1       7.855  -8.985 -44.874  1.00  0.00    -0.081 Cl
ENDBRANCH  24  26
ENDBRANCH   7  24
TORSDOF 6
ENDMDL
MODEL 18
REMARK minimizedAffinity -8.41042423
REMARK minimizedRMSD -1
REMARK SMILES COc1cc2ncnc(Nc3cccc(Cl)c3F)c2cc1OC(=O)N1CCN(C)C[C@H]1C
REMARK SMILES IDX 3 1 4 2 5 3 6 4 7 5 8 6 9 7 19 8 20 9 21 10 2 11 1 12 22 13
REMARK SMILES IDX 23 14 24 15 25 16 26 17 31 18 27 19 30 20 28 21 32 22 29 23
REMARK SMILES IDX 10 24 11 26 12 27 17 28 13 29 15 30 14 31 18 32 16 33
REMARK H PARENT 10 25
ROOT
ATOM      1  C   UNL     1       3.614 -19.529 -41.061  1.00  0.00     0.163 A 
ATOM      2  C   UNL     1       2.556 -20.437 -41.137  1.00  0.00     0.079 A 
ATOM      3  C   UNL     1       1.259 -20.035 -41.453  1.00  0.00     0.080 A 
ATOM      4  N   UNL     1       0.305 -20.967 -41.498  1.00  0.00    -0.236 NA
ATOM      5  C   UNL     1      -0.931 -20.550 -41.794  1.00  0.00     0.224 A 
ATOM      6  N   UNL     1      -1.300 -19.293 -42.055  1.00  0.00    -0.219 NA
ATOM      7  C   UNL     1      -0.333 -18.359 -42.024  1.00  0.00     0.141 A 
ATOM      8  C   UNL     1       1.001 -18.678 -41.703  1.00  0.00     0.047 A 
ATOM      9  C   UNL     1       2.059 -17.745 -41.611  1.00  0.00     0.065 A 
ATOM     10  C   UNL     1       3.345 -18.184 -41.310  1.00  0.00     0.175 A 
ENDROOT
BRANCH   1  11
ATOM     11  O   UNL     1       4.908 -19.839 -40.741  1.00  0.00    -0.493 OA
ATOM     12  C   UNL     1       5.723 -20.368 -41.779  1.00  0.00     0.278 C 
ENDBRANCH   1  11
BRANCH  10  13
ATOM     13  O   UNL     1       4.367 -17.236 -41.206  1.00  0.00    -0.406 OA
BRANCH  13  14
ATOM     14  C   UNL     1       4.666 -16.628 -42.421  1.00  0.00     0.415 C 
ATOM     15  O   UNL     1       3.911 -15.865 -43.018  1.00  0.00    -0.224 OA
BRANCH  14  16
ATOM     16  N   UNL     1       5.934 -16.956 -42.875  1.00  0.00    -0.303 N 
ATOM     17  C   UNL     1       7.051 -16.979 -41.940  1.00  0.00     0.139 C 
ATOM     18  C   UNL     1       6.284 -17.042 -44.304  1.00  0.00     0.099 C 
ATOM     19  C   UNL     1       8.122 -15.931 -42.309  1.00  0.00     0.106 C 
ATOM     20  C   UNL     1       7.815 -16.881 -44.540  1.00  0.00     0.109 C 
ATOM     21  N   UNL     1       8.361 -15.761 -43.760  1.00  0.00    -0.303 NA
ATOM     22  C   UNL     1       5.809 -18.365 -44.910  1.00  0.00     0.032 C 
ATOM     23  C   UNL     1       9.770 -15.526 -44.051  1.00  0.00     0.105 C 
ENDBRANCH  14  16
ENDBRANCH  13  14
ENDBRANCH  10  13
BRANCH   7  24
ATOM     24  N   UNL     1      -0.663 -17.011 -42.327  1.00  0.00    -0.337 N 
ATOM     25  H   UNL     1      -0.469 -16.425 -41.515  1.00  0.00     0.168 HD
BRANCH  24  26
ATOM     26  C   UNL     1      -0.411 -16.293 -43.521  1.00  0.00     0.077 A 
ATOM     27  C   UNL     1      -0.792 -16.761 -44.785  1.00  0.00     0.029 A 
ATOM     28  C   UNL     1       0.141 -15.004 -43.438  1.00  0.00     0.165 A 
ATOM     29  C   UNL     1      -0.580 -15.988 -45.932  1.00  0.00     0.004 A 
ATOM     30  C   UNL     1       0.355 -14.229 -44.578  1.00  0.00     0.078 A 
ATOM     31  C   UNL     1      -0.001 -14.723 -45.831  1.00  0.00     0.024 A 
ATOM     32  F   UNL     1       0.475 -14.527 -42.225  1.00  0.00    -0.203 F 
ATOM     33  Cl  UNL     1       1.051 -12.659 -44.454  1.00  0.00    -0.081 Cl
ENDBRANCH  24  26
ENDBRANCH   7  24
TORSDOF 6
ENDMDL
MODEL 19
REMARK minimizedAffinity -8.40175056
REMARK minimizedRMSD -1
REMARK SMILES COc1cc2ncnc(Nc3cccc(Cl)c3F)c2cc1OC(=O)N1CCN(C)C[C@H]1C
REMARK SMILES IDX 3 1 4 2 5 3 6 4 7 5 8 6 9 7 19 8 20 9 21 10 2 11 1 12 22 13
REMARK SMILES IDX 23 14 24 15 25 16 26 17 31 18 27 19 30 20 28 21 32 22 29 23
REMARK SMILES IDX 10 24 11 26 12 27 17 28 13 29 15 30 14 31 18 32 16 33
REMARK H PARENT 10 25
ROOT
ATOM      1  C   UNL     1       0.068 -15.533 -43.933  1.00  0.00     0.163 A 
ATOM      2  C   UNL     1      -0.893 -16.477 -43.567  1.00  0.00     0.079 A 
ATOM      3  C   UNL     1      -0.609 -17.513 -42.678  1.00  0.00     0.080 A 
ATOM      4  N   UNL     1      -1.585 -18.377 -42.387  1.00  0.00    -0.236 NA
ATOM      5  C   UNL     1      -1.281 -19.365 -41.539  1.00  0.00     0.224 A 
ATOM      6  N   UNL     1      -0.099 -19.567 -40.950  1.00  0.00    -0.219 NA
ATOM      7  C   UNL     1       0.877 -18.685 -41.233  1.00  0.00     0.141 A 
ATOM      8  C   UNL     1       0.678 -17.616 -42.129  1.00  0.00     0.047 A 
ATOM      9  C   UNL     1       1.667 -16.678 -42.505  1.00  0.00     0.065 A 
ATOM     10  C   UNL     1       1.344 -15.647 -43.382  1.00  0.00     0.175 A 
ENDROOT
BRANCH   1  11
ATOM     11  O   UNL     1      -0.124 -14.500 -44.810  1.00  0.00    -0.493 OA
ATOM     12  C   UNL     1      -0.279 -14.835 -46.183  1.00  0.00     0.278 C 
ENDBRANCH   1  11
BRANCH  10  13
ATOM     13  O   UNL     1       2.346 -14.746 -43.751  1.00  0.00    -0.406 OA
BRANCH  13  14
ATOM     14  C   UNL     1       3.259 -15.289 -44.650  1.00  0.00     0.415 C 
ATOM     15  O   UNL     1       2.982 -15.628 -45.798  1.00  0.00    -0.224 OA
BRANCH  14  16
ATOM     16  N   UNL     1       4.534 -15.381 -44.115  1.00  0.00    -0.303 N 
ATOM     17  C   UNL     1       4.915 -14.514 -43.009  1.00  0.00     0.139 C 
ATOM     18  C   UNL     1       5.629 -16.130 -44.756  1.00  0.00     0.099 C 
ATOM     19  C   UNL     1       6.073 -13.571 -43.399  1.00  0.00     0.106 C 
ATOM     20  C   UNL     1       7.028 -15.641 -44.280  1.00  0.00     0.109 C 
ATOM     21  N   UNL     1       7.107 -14.173 -44.271  1.00  0.00    -0.303 NA
ATOM     22  C   UNL     1       5.495 -17.633 -44.496  1.00  0.00     0.032 C 
ATOM     23  C   UNL     1       8.442 -13.697 -43.933  1.00  0.00     0.105 C 
ENDBRANCH  14  16
ENDBRANCH  13  14
ENDBRANCH  10  13
BRANCH   7  24
ATOM     24  N   UNL     1       2.144 -18.830 -40.608  1.00  0.00    -0.337 N 
ATOM     25  H   UNL     1       2.011 -19.092 -39.632  1.00  0.00     0.168 HD
BRANCH  24  26
ATOM     26  C   UNL     1       3.312 -19.442 -41.124  1.00  0.00     0.077 A 
ATOM     27  C   UNL     1       3.274 -20.486 -42.057  1.00  0.00     0.029 A 
ATOM     28  C   UNL     1       4.567 -18.915 -40.781  1.00  0.00     0.165 A 
ATOM     29  C   UNL     1       4.454 -21.019 -42.588  1.00  0.00     0.004 A 
ATOM     30  C   UNL     1       5.747 -19.441 -41.307  1.00  0.00     0.078 A 
ATOM     31  C   UNL     1       5.693 -20.500 -42.210  1.00  0.00     0.024 A 
ATOM     32  F   UNL     1       4.614 -17.885 -39.916  1.00  0.00    -0.203 F 
ATOM     33  Cl  UNL     1       7.276 -18.790 -40.857  1.00  0.00    -0.081 Cl
ENDBRANCH  24  26
ENDBRANCH   7  24
TORSDOF 6
ENDMDL
MODEL 20
REMARK minimizedAffinity -8.35028458
REMARK minimizedRMSD -1
REMARK SMILES COc1cc2ncnc(Nc3cccc(Cl)c3F)c2cc1OC(=O)N1CCN(C)C[C@H]1C
REMARK SMILES IDX 3 1 4 2 5 3 6 4 7 5 8 6 9 7 19 8 20 9 21 10 2 11 1 12 22 13
REMARK SMILES IDX 23 14 24 15 25 16 26 17 31 18 27 19 30 20 28 21 32 22 29 23
REMARK SMILES IDX 10 24 11 26 12 27 17 28 13 29 15 30 14 31 18 32 16 33
REMARK H PARENT 10 25
ROOT
ATOM      1  C   UNL     1       2.014 -11.012 -45.160  1.00  0.00     0.163 A 
ATOM      2  C   UNL     1       2.950 -11.999 -45.475  1.00  0.00     0.079 A 
ATOM      3  C   UNL     1       2.894 -13.275 -44.917  1.00  0.00     0.080 A 
ATOM      4  N   UNL     1       3.832 -14.157 -45.267  1.00  0.00    -0.236 NA
ATOM      5  C   UNL     1       3.758 -15.370 -44.708  1.00  0.00     0.224 A 
ATOM      6  N   UNL     1       2.832 -15.786 -43.840  1.00  0.00    -0.219 NA
ATOM      7  C   UNL     1       1.878 -14.899 -43.501  1.00  0.00     0.141 A 
ATOM      8  C   UNL     1       1.867 -13.586 -44.010  1.00  0.00     0.047 A 
ATOM      9  C   UNL     1       0.924 -12.591 -43.668  1.00  0.00     0.065 A 
ATOM     10  C   UNL     1       1.000 -11.332 -44.257  1.00  0.00     0.175 A 
ENDROOT
BRANCH   1  11
ATOM     11  O   UNL     1       2.009  -9.734 -45.649  1.00  0.00    -0.493 OA
ATOM     12  C   UNL     1       3.268  -9.161 -45.977  1.00  0.00     0.278 C 
ENDBRANCH   1  11
BRANCH  10  13
ATOM     13  O   UNL     1       0.066 -10.362 -43.885  1.00  0.00    -0.406 OA
BRANCH  13  14
ATOM     14  C   UNL     1      -1.100 -10.415 -44.643  1.00  0.00     0.415 C 
ATOM     15  O   UNL     1      -1.459 -11.392 -45.294  1.00  0.00    -0.224 OA
BRANCH  14  16
ATOM     16  N   UNL     1      -1.835  -9.242 -44.559  1.00  0.00    -0.303 N 
ATOM     17  C   UNL     1      -2.922  -9.141 -43.595  1.00  0.00     0.139 C 
ATOM     18  C   UNL     1      -1.755  -8.164 -45.560  1.00  0.00     0.099 C 
ATOM     19  C   UNL     1      -4.283  -8.936 -44.293  1.00  0.00     0.106 C 
ATOM     20  C   UNL     1      -3.021  -7.258 -45.542  1.00  0.00     0.109 C 
ATOM     21  N   UNL     1      -4.253  -8.059 -45.484  1.00  0.00    -0.303 NA
ATOM     22  C   UNL     1      -0.507  -7.305 -45.348  1.00  0.00     0.032 C 
ATOM     23  C   UNL     1      -5.449  -7.233 -45.577  1.00  0.00     0.105 C 
ENDBRANCH  14  16
ENDBRANCH  13  14
ENDBRANCH  10  13
BRANCH   7  24
ATOM     24  N   UNL     1       0.849 -15.298 -42.608  1.00  0.00    -0.337 N 
ATOM     25  H   UNL     1       0.256 -14.496 -42.397  1.00  0.00     0.168 HD
BRANCH  24  26
ATOM     26  C   UNL     1       0.077 -16.484 -42.631  1.00  0.00     0.077 A 
ATOM     27  C   UNL     1      -1.040 -16.649 -43.460  1.00  0.00     0.029 A 
ATOM     28  C   UNL     1       0.505 -17.592 -41.880  1.00  0.00     0.165 A 
ATOM     29  C   UNL     1      -1.736 -17.862 -43.497  1.00  0.00     0.004 A 
ATOM     30  C   UNL     1      -0.184 -18.804 -41.913  1.00  0.00     0.078 A 
ATOM     31  C   UNL     1      -1.312 -18.940 -42.720  1.00  0.00     0.024 A 
ATOM     32  F   UNL     1       1.600 -17.458 -41.111  1.00  0.00    -0.203 F 
ATOM     33  Cl  UNL     1       0.347 -20.142 -40.970  1.00  0.00    -0.081 Cl
ENDBRANCH  24  26
ENDBRANCH   7  24
TORSDOF 6
ENDMDL
