MODEL 1
REMARK minimizedAffinity -8.38303471
REMARK minimizedRMSD -1
REMARK SMILES COc1cc2c(Oc3ccc4[nH]c(C)cc4c3F)ncnc2cc1OCCCN1CCCC1
REMARK SMILES IDX 25 1 24 2 3 3 4 4 5 5 23 6 6 7 22 8 19 9 21 10 20 11 2 12
REMARK SMILES IDX 1 13 7 14 8 15 9 16 17 17 10 18 16 19 11 20 15 21 12 22
REMARK SMILES IDX 13 23 18 24 14 26 26 27 27 28 28 29 29 30 30 31 33 32 31 33
REMARK SMILES IDX 32 34
REMARK H PARENT 12 25
ROOT
ATOM      1  O   UNL     1       1.927  -9.127 -44.213  1.00  0.00    -0.490 OA
ENDROOT
BRANCH   1   2
ATOM      2  C   UNL     1       1.613 -10.460 -44.308  1.00  0.00     0.163 A 
ATOM      3  C   UNL     1       0.440 -10.865 -43.650  1.00  0.00     0.161 A 
ATOM      4  C   UNL     1       0.058 -12.205 -43.714  1.00  0.00     0.066 A 
ATOM      5  C   UNL     1       0.837 -13.141 -44.437  1.00  0.00     0.067 A 
ATOM      6  C   UNL     1       2.361 -11.394 -45.032  1.00  0.00     0.079 A 
ATOM      7  C   UNL     1       0.548 -14.502 -44.562  1.00  0.00     0.230 A 
ATOM      8  C   UNL     1       1.995 -12.731 -45.104  1.00  0.00     0.081 A 
ATOM      9  N   UNL     1       1.311 -15.385 -45.238  1.00  0.00    -0.201 NA
ATOM     10  N   UNL     1       2.761 -13.579 -45.803  1.00  0.00    -0.236 NA
ATOM     11  C   UNL     1       2.380 -14.864 -45.839  1.00  0.00     0.226 A 
BRANCH   3  12
ATOM     12  O   UNL     1      -0.241  -9.891 -42.966  1.00  0.00    -0.493 OA
ATOM     13  C   UNL     1      -1.505  -9.489 -43.474  1.00  0.00     0.278 C 
ENDBRANCH   3  12
BRANCH   7  14
ATOM     14  O   UNL     1      -0.565 -14.983 -43.876  1.00  0.00    -0.435 OA
BRANCH  14  15
ATOM     15  C   UNL     1      -0.410 -16.205 -43.264  1.00  0.00     0.165 A 
ATOM     16  C   UNL     1       0.708 -16.391 -42.453  1.00  0.00     0.052 A 
ATOM     17  C   UNL     1      -1.384 -17.205 -43.383  1.00  0.00     0.175 A 
ATOM     18  C   UNL     1       0.903 -17.597 -41.769  1.00  0.00     0.031 A 
ATOM     19  C   UNL     1      -1.211 -18.425 -42.706  1.00  0.00     0.039 A 
ATOM     20  C   UNL     1      -0.072 -18.595 -41.916  1.00  0.00     0.049 A 
ATOM     21  C   UNL     1      -1.968 -19.625 -42.609  1.00  0.00     0.034 A 
ATOM     22  N   UNL     1      -0.142 -19.857 -41.372  1.00  0.00    -0.359 N 
ATOM     23  C   UNL     1      -1.289 -20.494 -41.781  1.00  0.00     0.013 A 
ATOM     24  F   UNL     1      -2.484 -16.992 -44.122  1.00  0.00    -0.202 F 
ATOM     25  H   UNL     1       0.556 -20.255 -40.759  1.00  0.00     0.166 HD
ATOM     26  C   UNL     1      -1.618 -21.871 -41.338  1.00  0.00     0.064 C 
ENDBRANCH  14  15
ENDBRANCH   7  14
ENDBRANCH   1   2
BRANCH   1  27
ATOM     27  C   UNL     1       2.217  -8.398 -45.404  1.00  0.00     0.231 C 
BRANCH  27  28
ATOM     28  C   UNL     1       3.500  -7.577 -45.309  1.00  0.00     0.057 C 
BRANCH  28  29
ATOM     29  C   UNL     1       4.136  -7.463 -43.916  1.00  0.00     0.088 C 
BRANCH  29  30
ATOM     30  N   UNL     1       5.091  -8.532 -43.598  1.00  0.00    -0.303 NA
ATOM     31  C   UNL     1       5.853  -8.993 -44.768  1.00  0.00     0.084 C 
ATOM     32  C   UNL     1       6.125  -8.057 -42.671  1.00  0.00     0.084 C 
ATOM     33  C   UNL     1       7.066  -9.691 -44.163  1.00  0.00     0.017 C 
ATOM     34  C   UNL     1       7.181  -9.145 -42.748  1.00  0.00     0.017 C 
ENDBRANCH  29  30
ENDBRANCH  28  29
ENDBRANCH  27  28
ENDBRANCH   1  27
TORSDOF 8
ENDMDL
MODEL 2
REMARK minimizedAffinity -8.16147327
REMARK minimizedRMSD -1
REMARK SMILES COc1cc2c(Oc3ccc4[nH]c(C)cc4c3F)ncnc2cc1OCCCN1CCCC1
REMARK SMILES IDX 25 1 24 2 3 3 4 4 5 5 23 6 6 7 22 8 19 9 21 10 20 11 2 12
REMARK SMILES IDX 1 13 7 14 8 15 9 16 17 17 10 18 16 19 11 20 15 21 12 22
REMARK SMILES IDX 13 23 18 24 14 26 26 27 27 28 28 29 29 30 30 31 33 32 31 33
REMARK SMILES IDX 32 34
REMARK H PARENT 12 25
ROOT
ATOM      1  O   UNL     1      -0.692  -8.744 -44.400  1.00  0.00    -0.490 OA
ENDROOT
BRANCH   1   2
ATOM      2  C   UNL     1       0.014  -9.873 -44.730  1.00  0.00     0.163 A 
ATOM      3  C   UNL     1      -0.745 -10.968 -45.173  1.00  0.00     0.161 A 
ATOM      4  C   UNL     1      -0.088 -12.144 -45.534  1.00  0.00     0.066 A 
ATOM      5  C   UNL     1       1.324 -12.230 -45.461  1.00  0.00     0.067 A 
ATOM      6  C   UNL     1       1.409  -9.970 -44.682  1.00  0.00     0.079 A 
ATOM      7  C   UNL     1       2.078 -13.358 -45.794  1.00  0.00     0.230 A 
ATOM      8  C   UNL     1       2.077 -11.134 -45.036  1.00  0.00     0.081 A 
ATOM      9  N   UNL     1       3.422 -13.431 -45.701  1.00  0.00    -0.201 NA
ATOM     10  N   UNL     1       3.414 -11.166 -44.954  1.00  0.00    -0.236 NA
ATOM     11  C   UNL     1       4.022 -12.312 -45.295  1.00  0.00     0.226 A 
BRANCH   3  12
ATOM     12  O   UNL     1      -2.105 -10.794 -45.198  1.00  0.00    -0.493 OA
ATOM     13  C   UNL     1      -2.711 -10.504 -46.450  1.00  0.00     0.278 C 
ENDBRANCH   3  12
BRANCH   7  14
ATOM     14  O   UNL     1       1.382 -14.502 -46.176  1.00  0.00    -0.435 OA
BRANCH  14  15
ATOM     15  C   UNL     1       0.890 -15.275 -45.151  1.00  0.00     0.165 A 
ATOM     16  C   UNL     1       1.644 -15.366 -43.982  1.00  0.00     0.052 A 
ATOM     17  C   UNL     1      -0.366 -15.888 -45.242  1.00  0.00     0.175 A 
ATOM     18  C   UNL     1       1.179 -16.103 -42.886  1.00  0.00     0.031 A 
ATOM     19  C   UNL     1      -0.855 -16.633 -44.155  1.00  0.00     0.039 A 
ATOM     20  C   UNL     1      -0.072 -16.726 -43.003  1.00  0.00     0.049 A 
ATOM     21  C   UNL     1      -2.046 -17.372 -43.910  1.00  0.00     0.034 A 
ATOM     22  N   UNL     1      -0.767 -17.500 -42.102  1.00  0.00    -0.359 N 
ATOM     23  C   UNL     1      -1.969 -17.898 -42.637  1.00  0.00     0.013 A 
ATOM     24  F   UNL     1      -1.107 -15.746 -46.352  1.00  0.00    -0.202 F 
ATOM     25  H   UNL     1      -0.435 -17.741 -41.179  1.00  0.00     0.166 HD
ATOM     26  C   UNL     1      -2.922 -18.742 -41.876  1.00  0.00     0.064 C 
ENDBRANCH  14  15
ENDBRANCH   7  14
ENDBRANCH   1   2
BRANCH   1  27
ATOM     27  C   UNL     1      -0.585  -7.591 -45.234  1.00  0.00     0.231 C 
BRANCH  27  28
ATOM     28  C   UNL     1      -1.646  -6.535 -44.937  1.00  0.00     0.057 C 
BRANCH  28  29
ATOM     29  C   UNL     1      -2.447  -6.716 -43.640  1.00  0.00     0.088 C 
BRANCH  29  30
ATOM     30  N   UNL     1      -3.889  -6.905 -43.842  1.00  0.00    -0.303 NA
ATOM     31  C   UNL     1      -4.336  -6.543 -45.195  1.00  0.00     0.084 C 
ATOM     32  C   UNL     1      -4.257  -8.321 -43.718  1.00  0.00     0.084 C 
ATOM     33  C   UNL     1      -5.676  -7.254 -45.341  1.00  0.00     0.017 C 
ATOM     34  C   UNL     1      -5.660  -8.362 -44.298  1.00  0.00     0.017 C 
ENDBRANCH  29  30
ENDBRANCH  28  29
ENDBRANCH  27  28
ENDBRANCH   1  27
TORSDOF 8
ENDMDL
MODEL 3
REMARK minimizedAffinity -8.09792328
REMARK minimizedRMSD -1
REMARK SMILES COc1cc2c(Oc3ccc4[nH]c(C)cc4c3F)ncnc2cc1OCCCN1CCCC1
REMARK SMILES IDX 25 1 24 2 3 3 4 4 5 5 23 6 6 7 22 8 19 9 21 10 20 11 2 12
REMARK SMILES IDX 1 13 7 14 8 15 9 16 17 17 10 18 16 19 11 20 15 21 12 22
REMARK SMILES IDX 13 23 18 24 14 26 26 27 27 28 28 29 29 30 30 31 33 32 31 33
REMARK SMILES IDX 32 34
REMARK H PARENT 12 25
ROOT
ATOM      1  O   UNL     1       1.930  -9.288 -44.894  1.00  0.00    -0.490 OA
ENDROOT
BRANCH   1   2
ATOM      2  C   UNL     1       1.577 -10.612 -44.825  1.00  0.00     0.163 A 
ATOM      3  C   UNL     1       0.545 -10.930 -43.927  1.00  0.00     0.161 A 
ATOM      4  C   UNL     1       0.131 -12.257 -43.815  1.00  0.00     0.066 A 
ATOM      5  C   UNL     1       0.737 -13.268 -44.601  1.00  0.00     0.067 A 
ATOM      6  C   UNL     1       2.152 -11.621 -45.606  1.00  0.00     0.079 A 
ATOM      7  C   UNL     1       0.401 -14.623 -44.565  1.00  0.00     0.230 A 
ATOM      8  C   UNL     1       1.752 -12.946 -45.505  1.00  0.00     0.081 A 
ATOM      9  N   UNL     1       1.001 -15.578 -45.305  1.00  0.00    -0.201 NA
ATOM     10  N   UNL     1       2.352 -13.867 -46.272  1.00  0.00    -0.236 NA
ATOM     11  C   UNL     1       1.945 -15.137 -46.137  1.00  0.00     0.226 A 
BRANCH   3  12
ATOM     12  O   UNL     1       0.028  -9.887 -43.202  1.00  0.00    -0.493 OA
ATOM     13  C   UNL     1      -1.343  -9.567 -43.391  1.00  0.00     0.278 C 
ENDBRANCH   3  12
BRANCH   7  14
ATOM     14  O   UNL     1      -0.568 -15.017 -43.645  1.00  0.00    -0.435 OA
BRANCH  14  15
ATOM     15  C   UNL     1      -0.387 -16.255 -43.075  1.00  0.00     0.165 A 
ATOM     16  C   UNL     1       0.750 -16.453 -42.293  1.00  0.00     0.052 A 
ATOM     17  C   UNL     1      -1.351 -17.263 -43.207  1.00  0.00     0.175 A 
ATOM     18  C   UNL     1       0.972 -17.678 -41.652  1.00  0.00     0.031 A 
ATOM     19  C   UNL     1      -1.150 -18.502 -42.573  1.00  0.00     0.039 A 
ATOM     20  C   UNL     1       0.006 -18.682 -41.811  1.00  0.00     0.049 A 
ATOM     21  C   UNL     1      -1.891 -19.713 -42.500  1.00  0.00     0.034 A 
ATOM     22  N   UNL     1      -0.038 -19.961 -41.306  1.00  0.00    -0.359 N 
ATOM     23  C   UNL     1      -1.186 -20.600 -41.713  1.00  0.00     0.013 A 
ATOM     24  F   UNL     1      -2.467 -17.040 -43.917  1.00  0.00    -0.202 F 
ATOM     25  H   UNL     1       0.676 -20.370 -40.720  1.00  0.00     0.166 HD
ATOM     26  C   UNL     1      -1.490 -21.994 -41.308  1.00  0.00     0.064 C 
ENDBRANCH  14  15
ENDBRANCH   7  14
ENDBRANCH   1   2
BRANCH   1  27
ATOM     27  C   UNL     1       3.113  -8.923 -45.602  1.00  0.00     0.231 C 
BRANCH  27  28
ATOM     28  C   UNL     1       4.319  -8.716 -44.690  1.00  0.00     0.057 C 
BRANCH  28  29
ATOM     29  C   UNL     1       5.626  -9.396 -45.121  1.00  0.00     0.088 C 
BRANCH  29  30
ATOM     30  N   UNL     1       5.938 -10.629 -44.387  1.00  0.00    -0.303 NA
ATOM     31  C   UNL     1       6.126 -11.793 -45.264  1.00  0.00     0.084 C 
ATOM     32  C   UNL     1       7.220 -10.511 -43.680  1.00  0.00     0.084 C 
ATOM     33  C   UNL     1       6.897 -12.783 -44.399  1.00  0.00     0.017 C 
ATOM     34  C   UNL     1       7.534 -11.946 -43.299  1.00  0.00     0.017 C 
ENDBRANCH  29  30
ENDBRANCH  28  29
ENDBRANCH  27  28
ENDBRANCH   1  27
TORSDOF 8
ENDMDL
MODEL 4
REMARK minimizedAffinity -7.96252871
REMARK minimizedRMSD -1
REMARK SMILES COc1cc2c(Oc3ccc4[nH]c(C)cc4c3F)ncnc2cc1OCCCN1CCCC1
REMARK SMILES IDX 25 1 24 2 3 3 4 4 5 5 23 6 6 7 22 8 19 9 21 10 20 11 2 12
REMARK SMILES IDX 1 13 7 14 8 15 9 16 17 17 10 18 16 19 11 20 15 21 12 22
REMARK SMILES IDX 13 23 18 24 14 26 26 27 27 28 28 29 29 30 30 31 33 32 31 33
REMARK SMILES IDX 32 34
REMARK H PARENT 12 25
ROOT
ATOM      1  O   UNL     1       2.862 -11.006 -45.961  1.00  0.00    -0.490 OA
ENDROOT
BRANCH   1   2
ATOM      2  C   UNL     1       2.098 -12.115 -45.698  1.00  0.00     0.163 A 
ATOM      3  C   UNL     1       1.446 -12.135 -44.455  1.00  0.00     0.161 A 
ATOM      4  C   UNL     1       0.646 -13.229 -44.128  1.00  0.00     0.066 A 
ATOM      5  C   UNL     1       0.488 -14.301 -45.040  1.00  0.00     0.067 A 
ATOM      6  C   UNL     1       1.917 -13.175 -46.593  1.00  0.00     0.079 A 
ATOM      7  C   UNL     1      -0.285 -15.443 -44.812  1.00  0.00     0.230 A 
ATOM      8  C   UNL     1       1.125 -14.272 -46.283  1.00  0.00     0.081 A 
ATOM      9  N   UNL     1      -0.410 -16.465 -45.682  1.00  0.00    -0.201 NA
ATOM     10  N   UNL     1       1.003 -15.260 -47.178  1.00  0.00    -0.236 NA
ATOM     11  C   UNL     1       0.238 -16.308 -46.837  1.00  0.00     0.226 A 
BRANCH   3  12
ATOM     12  O   UNL     1       1.668 -11.058 -43.635  1.00  0.00    -0.493 OA
ATOM     13  C   UNL     1       0.576 -10.186 -43.379  1.00  0.00     0.278 C 
ENDBRANCH   3  12
BRANCH   7  14
ATOM     14  O   UNL     1      -0.905 -15.557 -43.569  1.00  0.00    -0.435 OA
BRANCH  14  15
ATOM     15  C   UNL     1      -0.931 -16.820 -43.027  1.00  0.00     0.165 A 
ATOM     16  C   UNL     1       0.222 -17.284 -42.395  1.00  0.00     0.052 A 
ATOM     17  C   UNL     1      -2.102 -17.588 -43.034  1.00  0.00     0.175 A 
ATOM     18  C   UNL     1       0.247 -18.545 -41.787  1.00  0.00     0.031 A 
ATOM     19  C   UNL     1      -2.102 -18.858 -42.430  1.00  0.00     0.039 A 
ATOM     20  C   UNL     1      -0.929 -19.308 -41.822  1.00  0.00     0.049 A 
ATOM     21  C   UNL     1      -3.078 -19.880 -42.263  1.00  0.00     0.034 A 
ATOM     22  N   UNL     1      -1.191 -20.560 -41.315  1.00  0.00    -0.359 N 
ATOM     23  C   UNL     1      -2.493 -20.921 -41.572  1.00  0.00     0.013 A 
ATOM     24  F   UNL     1      -3.222 -17.107 -43.596  1.00  0.00    -0.202 F 
ATOM     25  H   UNL     1      -0.518 -21.132 -40.824  1.00  0.00     0.166 HD
ATOM     26  C   UNL     1      -3.044 -22.225 -41.131  1.00  0.00     0.064 C 
ENDBRANCH  14  15
ENDBRANCH   7  14
ENDBRANCH   1   2
BRANCH   1  27
ATOM     27  C   UNL     1       4.113 -10.853 -45.294  1.00  0.00     0.231 C 
BRANCH  27  28
ATOM     28  C   UNL     1       5.121 -11.942 -45.649  1.00  0.00     0.057 C 
BRANCH  28  29
ATOM     29  C   UNL     1       5.761 -12.690 -44.471  1.00  0.00     0.088 C 
BRANCH  29  30
ATOM     30  N   UNL     1       5.392 -14.109 -44.383  1.00  0.00    -0.303 NA
ATOM     31  C   UNL     1       4.215 -14.349 -43.535  1.00  0.00     0.084 C 
ATOM     32  C   UNL     1       4.990 -14.631 -45.696  1.00  0.00     0.084 C 
ATOM     33  C   UNL     1       3.726 -15.726 -43.968  1.00  0.00     0.017 C 
ATOM     34  C   UNL     1       4.322 -15.949 -45.350  1.00  0.00     0.017 C 
ENDBRANCH  29  30
ENDBRANCH  28  29
ENDBRANCH  27  28
ENDBRANCH   1  27
TORSDOF 8
ENDMDL
MODEL 5
REMARK minimizedAffinity -7.961411
REMARK minimizedRMSD -1
REMARK SMILES COc1cc2c(Oc3ccc4[nH]c(C)cc4c3F)ncnc2cc1OCCCN1CCCC1
REMARK SMILES IDX 25 1 24 2 3 3 4 4 5 5 23 6 6 7 22 8 19 9 21 10 20 11 2 12
REMARK SMILES IDX 1 13 7 14 8 15 9 16 17 17 10 18 16 19 11 20 15 21 12 22
REMARK SMILES IDX 13 23 18 24 14 26 26 27 27 28 28 29 29 30 30 31 33 32 31 33
REMARK SMILES IDX 32 34
REMARK H PARENT 12 25
ROOT
ATOM      1  O   UNL     1       1.672  -8.854 -44.259  1.00  0.00    -0.490 OA
ENDROOT
BRANCH   1   2
ATOM      2  C   UNL     1       1.414 -10.198 -44.365  1.00  0.00     0.163 A 
ATOM      3  C   UNL     1       0.243 -10.653 -43.738  1.00  0.00     0.161 A 
ATOM      4  C   UNL     1      -0.083 -12.007 -43.816  1.00  0.00     0.066 A 
ATOM      5  C   UNL     1       0.751 -12.907 -44.524  1.00  0.00     0.067 A 
ATOM      6  C   UNL     1       2.216 -11.098 -45.074  1.00  0.00     0.079 A 
ATOM      7  C   UNL     1       0.519 -14.278 -44.660  1.00  0.00     0.230 A 
ATOM      8  C   UNL     1       1.906 -12.448 -45.160  1.00  0.00     0.081 A 
ATOM      9  N   UNL     1       1.333 -15.127 -45.321  1.00  0.00    -0.201 NA
ATOM     10  N   UNL     1       2.723 -13.261 -45.843  1.00  0.00    -0.236 NA
ATOM     11  C   UNL     1       2.396 -14.560 -45.894  1.00  0.00     0.226 A 
BRANCH   3  12
ATOM     12  O   UNL     1      -0.494  -9.710 -43.068  1.00  0.00    -0.493 OA
ATOM     13  C   UNL     1      -1.813  -9.454 -43.527  1.00  0.00     0.278 C 
ENDBRANCH   3  12
BRANCH   7  14
ATOM     14  O   UNL     1      -0.590 -14.807 -44.004  1.00  0.00    -0.435 OA
BRANCH  14  15
ATOM     15  C   UNL     1      -0.394 -16.012 -43.372  1.00  0.00     0.165 A 
ATOM     16  C   UNL     1       0.718 -16.141 -42.541  1.00  0.00     0.052 A 
ATOM     17  C   UNL     1      -1.323 -17.054 -43.493  1.00  0.00     0.175 A 
ATOM     18  C   UNL     1       0.951 -17.329 -41.837  1.00  0.00     0.031 A 
ATOM     19  C   UNL     1      -1.110 -18.257 -42.795  1.00  0.00     0.039 A 
ATOM     20  C   UNL     1       0.021 -18.368 -41.986  1.00  0.00     0.049 A 
ATOM     21  C   UNL     1      -1.819 -19.486 -42.694  1.00  0.00     0.034 A 
ATOM     22  N   UNL     1      -0.005 -19.624 -41.425  1.00  0.00    -0.359 N 
ATOM     23  C   UNL     1      -1.117 -20.315 -41.843  1.00  0.00     0.013 A 
ATOM     24  F   UNL     1      -2.418 -16.898 -44.252  1.00  0.00    -0.202 F 
ATOM     25  H   UNL     1       0.698 -19.984 -40.795  1.00  0.00     0.166 HD
ATOM     26  C   UNL     1      -1.396 -21.698 -41.385  1.00  0.00     0.064 C 
ENDBRANCH  14  15
ENDBRANCH   7  14
ENDBRANCH   1   2
BRANCH   1  27
ATOM     27  C   UNL     1       1.197  -7.975 -45.277  1.00  0.00     0.231 C 
BRANCH  27  28
ATOM     28  C   UNL     1       0.550  -6.709 -44.723  1.00  0.00     0.057 C 
BRANCH  28  29
ATOM     29  C   UNL     1      -0.150  -5.798 -45.742  1.00  0.00     0.088 C 
BRANCH  29  30
ATOM     30  N   UNL     1      -1.577  -5.576 -45.474  1.00  0.00    -0.303 NA
ATOM     31  C   UNL     1      -2.438  -6.638 -46.014  1.00  0.00     0.084 C 
ATOM     32  C   UNL     1      -1.852  -5.601 -44.032  1.00  0.00     0.084 C 
ATOM     33  C   UNL     1      -3.738  -6.489 -45.232  1.00  0.00     0.017 C 
ATOM     34  C   UNL     1      -3.365  -5.718 -43.974  1.00  0.00     0.017 C 
ENDBRANCH  29  30
ENDBRANCH  28  29
ENDBRANCH  27  28
ENDBRANCH   1  27
TORSDOF 8
ENDMDL
MODEL 6
REMARK minimizedAffinity -7.93106985
REMARK minimizedRMSD -1
REMARK SMILES COc1cc2c(Oc3ccc4[nH]c(C)cc4c3F)ncnc2cc1OCCCN1CCCC1
REMARK SMILES IDX 25 1 24 2 3 3 4 4 5 5 23 6 6 7 22 8 19 9 21 10 20 11 2 12
REMARK SMILES IDX 1 13 7 14 8 15 9 16 17 17 10 18 16 19 11 20 15 21 12 22
REMARK SMILES IDX 13 23 18 24 14 26 26 27 27 28 28 29 29 30 30 31 33 32 31 33
REMARK SMILES IDX 32 34
REMARK H PARENT 12 25
ROOT
ATOM      1  O   UNL     1      -0.832 -10.181 -46.360  1.00  0.00    -0.490 OA
ENDROOT
BRANCH   1   2
ATOM      2  C   UNL     1      -0.489 -11.466 -46.021  1.00  0.00     0.163 A 
ATOM      3  C   UNL     1      -0.285 -11.709 -44.654  1.00  0.00     0.161 A 
ATOM      4  C   UNL     1       0.057 -12.997 -44.240  1.00  0.00     0.066 A 
ATOM      5  C   UNL     1       0.190 -14.044 -45.185  1.00  0.00     0.067 A 
ATOM      6  C   UNL     1      -0.371 -12.516 -46.938  1.00  0.00     0.079 A 
ATOM      7  C   UNL     1       0.531 -15.363 -44.879  1.00  0.00     0.230 A 
ATOM      8  C   UNL     1      -0.029 -13.802 -46.543  1.00  0.00     0.081 A 
ATOM      9  N   UNL     1       0.673 -16.345 -45.792  1.00  0.00    -0.201 NA
ATOM     10  N   UNL     1       0.081 -14.760 -47.472  1.00  0.00    -0.236 NA
ATOM     11  C   UNL     1       0.423 -15.987 -47.051  1.00  0.00     0.226 A 
BRANCH   3  12
ATOM     12  O   UNL     1      -0.425 -10.632 -43.817  1.00  0.00    -0.493 OA
ATOM     13  C   UNL     1       0.757  -9.967 -43.393  1.00  0.00     0.278 C 
ENDBRANCH   3  12
BRANCH   7  14
ATOM     14  O   UNL     1       0.813 -15.658 -43.546  1.00  0.00    -0.435 OA
BRANCH  14  15
ATOM     15  C   UNL     1       0.169 -16.754 -43.025  1.00  0.00     0.165 A 
ATOM     16  C   UNL     1       0.902 -17.619 -42.214  1.00  0.00     0.052 A 
ATOM     17  C   UNL     1      -1.202 -16.957 -43.233  1.00  0.00     0.175 A 
ATOM     18  C   UNL     1       0.293 -18.731 -41.619  1.00  0.00     0.031 A 
ATOM     19  C   UNL     1      -1.836 -18.067 -42.647  1.00  0.00     0.039 A 
ATOM     20  C   UNL     1      -1.075 -18.929 -41.855  1.00  0.00     0.049 A 
ATOM     21  C   UNL     1      -3.166 -18.570 -42.652  1.00  0.00     0.034 A 
ATOM     22  N   UNL     1      -1.920 -19.919 -41.408  1.00  0.00    -0.359 N 
ATOM     23  C   UNL     1      -3.194 -19.714 -41.881  1.00  0.00     0.013 A 
ATOM     24  F   UNL     1      -1.909 -16.087 -43.971  1.00  0.00    -0.202 F 
ATOM     25  H   UNL     1      -1.638 -20.688 -40.816  1.00  0.00     0.166 HD
ATOM     26  C   UNL     1      -4.309 -20.633 -41.547  1.00  0.00     0.064 C 
ENDBRANCH  14  15
ENDBRANCH   7  14
ENDBRANCH   1   2
BRANCH   1  27
ATOM     27  C   UNL     1      -2.212  -9.847 -46.501  1.00  0.00     0.231 C 
BRANCH  27  28
ATOM     28  C   UNL     1      -2.626  -8.640 -45.664  1.00  0.00     0.057 C 
BRANCH  28  29
ATOM     29  C   UNL     1      -4.032  -8.081 -45.922  1.00  0.00     0.088 C 
BRANCH  29  30
ATOM     30  N   UNL     1      -4.904  -8.068 -44.741  1.00  0.00    -0.303 NA
ATOM     31  C   UNL     1      -4.810  -9.297 -43.939  1.00  0.00     0.084 C 
ATOM     32  C   UNL     1      -4.508  -7.008 -43.805  1.00  0.00     0.084 C 
ATOM     33  C   UNL     1      -5.365  -8.891 -42.579  1.00  0.00     0.017 C 
ATOM     34  C   UNL     1      -5.256  -7.374 -42.536  1.00  0.00     0.017 C 
ENDBRANCH  29  30
ENDBRANCH  28  29
ENDBRANCH  27  28
ENDBRANCH   1  27
TORSDOF 8
ENDMDL
MODEL 7
REMARK minimizedAffinity -7.89846134
REMARK minimizedRMSD -1
REMARK SMILES COc1cc2c(Oc3ccc4[nH]c(C)cc4c3F)ncnc2cc1OCCCN1CCCC1
REMARK SMILES IDX 25 1 24 2 3 3 4 4 5 5 23 6 6 7 22 8 19 9 21 10 20 11 2 12
REMARK SMILES IDX 1 13 7 14 8 15 9 16 17 17 10 18 16 19 11 20 15 21 12 22
REMARK SMILES IDX 13 23 18 24 14 26 26 27 27 28 28 29 29 30 30 31 33 32 31 33
REMARK SMILES IDX 32 34
REMARK H PARENT 12 25
ROOT
ATOM      1  O   UNL     1       5.312 -15.558 -44.172  1.00  0.00    -0.490 OA
ENDROOT
BRANCH   1   2
ATOM      2  C   UNL     1       4.230 -14.986 -44.793  1.00  0.00     0.163 A 
ATOM      3  C   UNL     1       4.197 -13.582 -44.807  1.00  0.00     0.161 A 
ATOM      4  C   UNL     1       3.129 -12.937 -45.430  1.00  0.00     0.066 A 
ATOM      5  C   UNL     1       2.097 -13.687 -46.046  1.00  0.00     0.067 A 
ATOM      6  C   UNL     1       3.211 -15.710 -45.420  1.00  0.00     0.079 A 
ATOM      7  C   UNL     1       0.984 -13.143 -46.692  1.00  0.00     0.230 A 
ATOM      8  C   UNL     1       2.140 -15.083 -46.044  1.00  0.00     0.081 A 
ATOM      9  N   UNL     1      -0.001 -13.870 -47.256  1.00  0.00    -0.201 NA
ATOM     10  N   UNL     1       1.190 -15.835 -46.615  1.00  0.00    -0.236 NA
ATOM     11  C   UNL     1       0.167 -15.192 -47.197  1.00  0.00     0.226 A 
BRANCH   3  12
ATOM     12  O   UNL     1       5.234 -12.944 -44.176  1.00  0.00    -0.493 OA
ATOM     13  C   UNL     1       6.142 -12.205 -44.981  1.00  0.00     0.278 C 
ENDBRANCH   3  12
BRANCH   7  14
ATOM     14  O   UNL     1       0.855 -11.756 -46.683  1.00  0.00    -0.435 OA
BRANCH  14  15
ATOM     15  C   UNL     1       0.082 -11.232 -45.674  1.00  0.00     0.165 A 
ATOM     16  C   UNL     1       0.721 -10.829 -44.503  1.00  0.00     0.052 A 
ATOM     17  C   UNL     1      -1.294 -11.033 -45.844  1.00  0.00     0.175 A 
ATOM     18  C   UNL     1      -0.005 -10.251 -43.454  1.00  0.00     0.031 A 
ATOM     19  C   UNL     1      -2.045 -10.454 -44.806  1.00  0.00     0.039 A 
ATOM     20  C   UNL     1      -1.385 -10.078 -43.635  1.00  0.00     0.049 A 
ATOM     21  C   UNL     1      -3.418 -10.122 -44.636  1.00  0.00     0.034 A 
ATOM     22  N   UNL     1      -2.332  -9.546 -42.790  1.00  0.00    -0.359 N 
ATOM     23  C   UNL     1      -3.571  -9.563 -43.384  1.00  0.00     0.013 A 
ATOM     24  F   UNL     1      -1.889 -11.374 -46.998  1.00  0.00    -0.202 F 
ATOM     25  H   UNL     1      -2.138  -9.194 -41.862  1.00  0.00     0.166 HD
ATOM     26  C   UNL     1      -4.776  -9.043 -42.693  1.00  0.00     0.064 C 
ENDBRANCH  14  15
ENDBRANCH   7  14
ENDBRANCH   1   2
BRANCH   1  27
ATOM     27  C   UNL     1       5.281 -16.952 -43.870  1.00  0.00     0.231 C 
BRANCH  27  28
ATOM     28  C   UNL     1       4.773 -17.251 -42.462  1.00  0.00     0.057 C 
BRANCH  28  29
ATOM     29  C   UNL     1       4.807 -18.721 -42.022  1.00  0.00     0.088 C 
BRANCH  29  30
ATOM     30  N   UNL     1       3.733 -19.100 -41.095  1.00  0.00    -0.303 NA
ATOM     31  C   UNL     1       2.574 -18.197 -41.153  1.00  0.00     0.084 C 
ATOM     32  C   UNL     1       3.173 -20.411 -41.445  1.00  0.00     0.084 C 
ATOM     33  C   UNL     1       1.444 -19.010 -40.533  1.00  0.00     0.017 C 
ATOM     34  C   UNL     1       1.888 -20.462 -40.638  1.00  0.00     0.017 C 
ENDBRANCH  29  30
ENDBRANCH  28  29
ENDBRANCH  27  28
ENDBRANCH   1  27
TORSDOF 8
ENDMDL
MODEL 8
REMARK minimizedAffinity -7.89330435
REMARK minimizedRMSD -1
REMARK SMILES COc1cc2c(Oc3ccc4[nH]c(C)cc4c3F)ncnc2cc1OCCCN1CCCC1
REMARK SMILES IDX 25 1 24 2 3 3 4 4 5 5 23 6 6 7 22 8 19 9 21 10 20 11 2 12
REMARK SMILES IDX 1 13 7 14 8 15 9 16 17 17 10 18 16 19 11 20 15 21 12 22
REMARK SMILES IDX 13 23 18 24 14 26 26 27 27 28 28 29 29 30 30 31 33 32 31 33
REMARK SMILES IDX 32 34
REMARK H PARENT 12 25
ROOT
ATOM      1  O   UNL     1       6.361 -14.224 -45.516  1.00  0.00    -0.490 OA
ENDROOT
BRANCH   1   2
ATOM      2  C   UNL     1       5.985 -15.203 -44.631  1.00  0.00     0.163 A 
ATOM      3  C   UNL     1       5.002 -14.844 -43.694  1.00  0.00     0.161 A 
ATOM      4  C   UNL     1       4.568 -15.795 -42.771  1.00  0.00     0.066 A 
ATOM      5  C   UNL     1       5.105 -17.106 -42.784  1.00  0.00     0.067 A 
ATOM      6  C   UNL     1       6.492 -16.506 -44.639  1.00  0.00     0.079 A 
ATOM      7  C   UNL     1       4.745 -18.130 -41.905  1.00  0.00     0.230 A 
ATOM      8  C   UNL     1       6.071 -17.464 -43.726  1.00  0.00     0.081 A 
ATOM      9  N   UNL     1       5.280 -19.367 -41.916  1.00  0.00    -0.201 NA
ATOM     10  N   UNL     1       6.606 -18.691 -43.779  1.00  0.00    -0.236 NA
ATOM     11  C   UNL     1       6.182 -19.585 -42.873  1.00  0.00     0.226 A 
BRANCH   3  12
ATOM     12  O   UNL     1       4.550 -13.550 -43.753  1.00  0.00    -0.493 OA
ATOM     13  C   UNL     1       3.243 -13.329 -44.264  1.00  0.00     0.278 C 
ENDBRANCH   3  12
BRANCH   7  14
ATOM     14  O   UNL     1       3.823 -17.820 -40.907  1.00  0.00    -0.435 OA
BRANCH  14  15
ATOM     15  C   UNL     1       2.617 -18.477 -40.980  1.00  0.00     0.165 A 
ATOM     16  C   UNL     1       2.497 -19.698 -40.319  1.00  0.00     0.052 A 
ATOM     17  C   UNL     1       1.517 -17.902 -41.629  1.00  0.00     0.175 A 
ATOM     18  C   UNL     1       1.284 -20.397 -40.321  1.00  0.00     0.031 A 
ATOM     19  C   UNL     1       0.287 -18.585 -41.644  1.00  0.00     0.039 A 
ATOM     20  C   UNL     1       0.199 -19.816 -40.992  1.00  0.00     0.049 A 
ATOM     21  C   UNL     1      -0.995 -18.311 -42.197  1.00  0.00     0.034 A 
ATOM     22  N   UNL     1      -1.091 -20.267 -41.155  1.00  0.00    -0.359 N 
ATOM     23  C   UNL     1      -1.829 -19.364 -41.882  1.00  0.00     0.013 A 
ATOM     24  F   UNL     1       1.630 -16.700 -42.214  1.00  0.00    -0.202 F 
ATOM     25  H   UNL     1      -1.441 -21.142 -40.791  1.00  0.00     0.166 HD
ATOM     26  C   UNL     1      -3.258 -19.600 -42.202  1.00  0.00     0.064 C 
ENDBRANCH  14  15
ENDBRANCH   7  14
ENDBRANCH   1   2
BRANCH   1  27
ATOM     27  C   UNL     1       7.721 -13.794 -45.537  1.00  0.00     0.231 C 
BRANCH  27  28
ATOM     28  C   UNL     1       8.036 -12.742 -44.478  1.00  0.00     0.057 C 
BRANCH  28  29
ATOM     29  C   UNL     1       8.897 -13.201 -43.293  1.00  0.00     0.088 C 
BRANCH  29  30
ATOM     30  N   UNL     1       8.181 -13.264 -42.013  1.00  0.00    -0.303 NA
ATOM     31  C   UNL     1       9.049 -13.621 -40.882  1.00  0.00     0.084 C 
ATOM     32  C   UNL     1       7.647 -11.946 -41.643  1.00  0.00     0.084 C 
ATOM     33  C   UNL     1       8.267 -13.155 -39.659  1.00  0.00     0.017 C 
ATOM     34  C   UNL     1       7.278 -12.124 -40.182  1.00  0.00     0.017 C 
ENDBRANCH  29  30
ENDBRANCH  28  29
ENDBRANCH  27  28
ENDBRANCH   1  27
TORSDOF 8
ENDMDL
MODEL 9
REMARK minimizedAffinity -7.88646507
REMARK minimizedRMSD -1
REMARK SMILES COc1cc2c(Oc3ccc4[nH]c(C)cc4c3F)ncnc2cc1OCCCN1CCCC1
REMARK SMILES IDX 25 1 24 2 3 3 4 4 5 5 23 6 6 7 22 8 19 9 21 10 20 11 2 12
REMARK SMILES IDX 1 13 7 14 8 15 9 16 17 17 10 18 16 19 11 20 15 21 12 22
REMARK SMILES IDX 13 23 18 24 14 26 26 27 27 28 28 29 29 30 30 31 33 32 31 33
REMARK SMILES IDX 32 34
REMARK H PARENT 12 25
ROOT
ATOM      1  O   UNL     1       9.347 -15.924 -42.817  1.00  0.00    -0.490 OA
ENDROOT
BRANCH   1   2
ATOM      2  C   UNL     1       8.321 -16.740 -42.414  1.00  0.00     0.163 A 
ATOM      3  C   UNL     1       7.381 -16.165 -41.543  1.00  0.00     0.161 A 
ATOM      4  C   UNL     1       6.307 -16.937 -41.101  1.00  0.00     0.066 A 
ATOM      5  C   UNL     1       6.162 -18.279 -41.532  1.00  0.00     0.067 A 
ATOM      6  C   UNL     1       8.152 -18.061 -42.842  1.00  0.00     0.079 A 
ATOM      7  C   UNL     1       5.129 -19.138 -41.150  1.00  0.00     0.230 A 
ATOM      8  C   UNL     1       7.089 -18.843 -42.411  1.00  0.00     0.081 A 
ATOM      9  N   UNL     1       5.015 -20.420 -41.552  1.00  0.00    -0.201 NA
ATOM     10  N   UNL     1       6.992 -20.105 -42.848  1.00  0.00    -0.236 NA
ATOM     11  C   UNL     1       5.958 -20.832 -42.401  1.00  0.00     0.226 A 
BRANCH   3  12
ATOM     12  O   UNL     1       7.612 -14.865 -41.173  1.00  0.00    -0.493 OA
ATOM     13  C   UNL     1       6.855 -13.850 -41.818  1.00  0.00     0.278 C 
ENDBRANCH   3  12
BRANCH   7  14
ATOM     14  O   UNL     1       4.200 -18.652 -40.232  1.00  0.00    -0.435 OA
BRANCH  14  15
ATOM     15  C   UNL     1       2.883 -18.712 -40.623  1.00  0.00     0.165 A 
ATOM     16  C   UNL     1       2.087 -19.720 -40.084  1.00  0.00     0.052 A 
ATOM     17  C   UNL     1       2.335 -17.744 -41.474  1.00  0.00     0.175 A 
ATOM     18  C   UNL     1       0.728 -19.810 -40.410  1.00  0.00     0.031 A 
ATOM     19  C   UNL     1       0.973 -17.813 -41.817  1.00  0.00     0.039 A 
ATOM     20  C   UNL     1       0.201 -18.844 -41.279  1.00  0.00     0.049 A 
ATOM     21  C   UNL     1       0.112 -17.030 -42.634  1.00  0.00     0.034 A 
ATOM     22  N   UNL     1      -1.077 -18.688 -41.765  1.00  0.00    -0.359 N 
ATOM     23  C   UNL     1      -1.148 -17.589 -42.587  1.00  0.00     0.013 A 
ATOM     24  F   UNL     1       3.100 -16.745 -41.943  1.00  0.00    -0.202 F 
ATOM     25  H   UNL     1      -1.851 -19.300 -41.545  1.00  0.00     0.166 HD
ATOM     26  C   UNL     1      -2.415 -17.186 -43.245  1.00  0.00     0.064 C 
ENDBRANCH  14  15
ENDBRANCH   7  14
ENDBRANCH   1   2
BRANCH   1  27
ATOM     27  C   UNL     1       9.683 -15.866 -44.202  1.00  0.00     0.231 C 
BRANCH  27  28
ATOM     28  C   UNL     1       8.684 -15.063 -45.030  1.00  0.00     0.057 C 
BRANCH  28  29
ATOM     29  C   UNL     1       8.143 -15.743 -46.296  1.00  0.00     0.088 C 
BRANCH  29  30
ATOM     30  N   UNL     1       6.756 -16.213 -46.184  1.00  0.00    -0.303 NA
ATOM     31  C   UNL     1       6.653 -17.662 -45.957  1.00  0.00     0.084 C 
ATOM     32  C   UNL     1       6.094 -15.626 -45.013  1.00  0.00     0.084 C 
ATOM     33  C   UNL     1       5.249 -17.846 -45.393  1.00  0.00     0.017 C 
ATOM     34  C   UNL     1       4.846 -16.478 -44.862  1.00  0.00     0.017 C 
ENDBRANCH  29  30
ENDBRANCH  28  29
ENDBRANCH  27  28
ENDBRANCH   1  27
TORSDOF 8
ENDMDL
MODEL 10
REMARK minimizedAffinity -7.86135674
REMARK minimizedRMSD -1
REMARK SMILES COc1cc2c(Oc3ccc4[nH]c(C)cc4c3F)ncnc2cc1OCCCN1CCCC1
REMARK SMILES IDX 25 1 24 2 3 3 4 4 5 5 23 6 6 7 22 8 19 9 21 10 20 11 2 12
REMARK SMILES IDX 1 13 7 14 8 15 9 16 17 17 10 18 16 19 11 20 15 21 12 22
REMARK SMILES IDX 13 23 18 24 14 26 26 27 27 28 28 29 29 30 30 31 33 32 31 33
REMARK SMILES IDX 32 34
REMARK H PARENT 12 25
ROOT
ATOM      1  O   UNL     1       9.130 -16.343 -43.037  1.00  0.00    -0.490 OA
ENDROOT
BRANCH   1   2
ATOM      2  C   UNL     1       8.121 -17.192 -42.658  1.00  0.00     0.163 A 
ATOM      3  C   UNL     1       7.246 -16.710 -41.672  1.00  0.00     0.161 A 
ATOM      4  C   UNL     1       6.193 -17.520 -41.249  1.00  0.00     0.066 A 
ATOM      5  C   UNL     1       6.005 -18.807 -41.811  1.00  0.00     0.067 A 
ATOM      6  C   UNL     1       7.910 -18.458 -43.214  1.00  0.00     0.079 A 
ATOM      7  C   UNL     1       4.988 -19.697 -41.457  1.00  0.00     0.230 A 
ATOM      8  C   UNL     1       6.868 -19.277 -42.803  1.00  0.00     0.081 A 
ATOM      9  N   UNL     1       4.833 -20.927 -41.987  1.00  0.00    -0.201 NA
ATOM     10  N   UNL     1       6.728 -20.485 -43.365  1.00  0.00    -0.236 NA
ATOM     11  C   UNL     1       5.715 -21.250 -42.933  1.00  0.00     0.226 A 
BRANCH   3  12
ATOM     12  O   UNL     1       7.515 -15.458 -41.180  1.00  0.00    -0.493 OA
ATOM     13  C   UNL     1       6.768 -14.369 -41.704  1.00  0.00     0.278 C 
ENDBRANCH   3  12
BRANCH   7  14
ATOM     14  O   UNL     1       4.125 -19.308 -40.435  1.00  0.00    -0.435 OA
BRANCH  14  15
ATOM     15  C   UNL     1       2.848 -18.974 -40.823  1.00  0.00     0.165 A 
ATOM     16  C   UNL     1       2.641 -17.707 -41.366  1.00  0.00     0.052 A 
ATOM     17  C   UNL     1       1.802 -19.903 -40.751  1.00  0.00     0.175 A 
ATOM     18  C   UNL     1       1.373 -17.321 -41.818  1.00  0.00     0.031 A 
ATOM     19  C   UNL     1       0.520 -19.538 -41.199  1.00  0.00     0.039 A 
ATOM     20  C   UNL     1       0.334 -18.257 -41.720  1.00  0.00     0.049 A 
ATOM     21  C   UNL     1      -0.736 -20.203 -41.266  1.00  0.00     0.034 A 
ATOM     22  N   UNL     1      -0.991 -18.155 -42.080  1.00  0.00    -0.359 N 
ATOM     23  C   UNL     1      -1.653 -19.330 -41.813  1.00  0.00     0.013 A 
ATOM     24  F   UNL     1       2.027 -21.138 -40.278  1.00  0.00    -0.202 F 
ATOM     25  H   UNL     1      -1.412 -17.330 -42.482  1.00  0.00     0.166 HD
ATOM     26  C   UNL     1      -3.097 -19.496 -42.108  1.00  0.00     0.064 C 
ENDBRANCH  14  15
ENDBRANCH   7  14
ENDBRANCH   1   2
BRANCH   1  27
ATOM     27  C   UNL     1       9.359 -16.114 -44.426  1.00  0.00     0.231 C 
BRANCH  27  28
ATOM     28  C   UNL     1       8.992 -14.702 -44.872  1.00  0.00     0.057 C 
BRANCH  28  29
ATOM     29  C   UNL     1       7.519 -14.461 -45.233  1.00  0.00     0.088 C 
BRANCH  29  30
ATOM     30  N   UNL     1       7.195 -13.065 -45.551  1.00  0.00    -0.303 NA
ATOM     31  C   UNL     1       5.816 -12.697 -45.198  1.00  0.00     0.084 C 
ATOM     32  C   UNL     1       8.018 -12.140 -44.760  1.00  0.00     0.084 C 
ATOM     33  C   UNL     1       5.847 -11.174 -45.135  1.00  0.00     0.017 C 
ATOM     34  C   UNL     1       7.312 -10.809 -44.947  1.00  0.00     0.017 C 
ENDBRANCH  29  30
ENDBRANCH  28  29
ENDBRANCH  27  28
ENDBRANCH   1  27
TORSDOF 8
ENDMDL
MODEL 11
REMARK minimizedAffinity -7.83556986
REMARK minimizedRMSD -1
REMARK SMILES COc1cc2c(Oc3ccc4[nH]c(C)cc4c3F)ncnc2cc1OCCCN1CCCC1
REMARK SMILES IDX 25 1 24 2 3 3 4 4 5 5 23 6 6 7 22 8 19 9 21 10 20 11 2 12
REMARK SMILES IDX 1 13 7 14 8 15 9 16 17 17 10 18 16 19 11 20 15 21 12 22
REMARK SMILES IDX 13 23 18 24 14 26 26 27 27 28 28 29 29 30 30 31 33 32 31 33
REMARK SMILES IDX 32 34
REMARK H PARENT 12 25
ROOT
ATOM      1  O   UNL     1       7.756 -13.718 -44.501  1.00  0.00    -0.490 OA
ENDROOT
BRANCH   1   2
ATOM      2  C   UNL     1       7.083 -14.783 -43.957  1.00  0.00     0.163 A 
ATOM      3  C   UNL     1       6.297 -14.504 -42.828  1.00  0.00     0.161 A 
ATOM      4  C   UNL     1       5.579 -15.540 -42.231  1.00  0.00     0.066 A 
ATOM      5  C   UNL     1       5.636 -16.852 -42.760  1.00  0.00     0.067 A 
ATOM      6  C   UNL     1       7.115 -16.081 -44.476  1.00  0.00     0.079 A 
ATOM      7  C   UNL     1       4.962 -17.959 -42.240  1.00  0.00     0.230 A 
ATOM      8  C   UNL     1       6.407 -17.123 -43.893  1.00  0.00     0.081 A 
ATOM      9  N   UNL     1       5.042 -19.207 -42.743  1.00  0.00    -0.201 NA
ATOM     10  N   UNL     1       6.490 -18.347 -44.432  1.00  0.00    -0.236 NA
ATOM     11  C   UNL     1       5.800 -19.329 -43.833  1.00  0.00     0.226 A 
BRANCH   3  12
ATOM     12  O   UNL     1       6.313 -13.207 -42.381  1.00  0.00    -0.493 OA
ATOM     13  C   UNL     1       7.154 -12.898 -41.280  1.00  0.00     0.278 C 
ENDBRANCH   3  12
BRANCH   7  14
ATOM     14  O   UNL     1       4.217 -17.765 -41.078  1.00  0.00    -0.435 OA
BRANCH  14  15
ATOM     15  C   UNL     1       2.965 -18.333 -41.066  1.00  0.00     0.165 A 
ATOM     16  C   UNL     1       2.769 -19.464 -40.276  1.00  0.00     0.052 A 
ATOM     17  C   UNL     1       1.898 -17.751 -41.762  1.00  0.00     0.175 A 
ATOM     18  C   UNL     1       1.508 -20.067 -40.189  1.00  0.00     0.031 A 
ATOM     19  C   UNL     1       0.621 -18.337 -41.690  1.00  0.00     0.039 A 
ATOM     20  C   UNL     1       0.455 -19.481 -40.908  1.00  0.00     0.049 A 
ATOM     21  C   UNL     1      -0.647 -18.030 -42.254  1.00  0.00     0.034 A 
ATOM     22  N   UNL     1      -0.866 -19.851 -41.006  1.00  0.00    -0.359 N 
ATOM     23  C   UNL     1      -1.551 -18.978 -41.819  1.00  0.00     0.013 A 
ATOM     24  F   UNL     1       2.087 -16.630 -42.475  1.00  0.00    -0.202 F 
ATOM     25  H   UNL     1      -1.273 -20.653 -40.546  1.00  0.00     0.166 HD
ATOM     26  C   UNL     1      -2.999 -19.139 -42.096  1.00  0.00     0.064 C 
ENDBRANCH  14  15
ENDBRANCH   7  14
ENDBRANCH   1   2
BRANCH   1  27
ATOM     27  C   UNL     1       8.878 -13.967 -45.346  1.00  0.00     0.231 C 
BRANCH  27  28
ATOM     28  C   UNL     1      10.160 -13.298 -44.857  1.00  0.00     0.057 C 
BRANCH  28  29
ATOM     29  C   UNL     1      10.408 -13.322 -43.343  1.00  0.00     0.088 C 
BRANCH  29  30
ATOM     30  N   UNL     1      11.199 -14.468 -42.877  1.00  0.00    -0.303 NA
ATOM     31  C   UNL     1      12.645 -14.205 -42.863  1.00  0.00     0.084 C 
ATOM     32  C   UNL     1      10.887 -14.790 -41.479  1.00  0.00     0.084 C 
ATOM     33  C   UNL     1      13.202 -15.268 -41.924  1.00  0.00     0.017 C 
ATOM     34  C   UNL     1      12.019 -15.722 -41.082  1.00  0.00     0.017 C 
ENDBRANCH  29  30
ENDBRANCH  28  29
ENDBRANCH  27  28
ENDBRANCH   1  27
TORSDOF 8
ENDMDL
MODEL 12
REMARK minimizedAffinity -7.80043793
REMARK minimizedRMSD -1
REMARK SMILES COc1cc2c(Oc3ccc4[nH]c(C)cc4c3F)ncnc2cc1OCCCN1CCCC1
REMARK SMILES IDX 25 1 24 2 3 3 4 4 5 5 23 6 6 7 22 8 19 9 21 10 20 11 2 12
REMARK SMILES IDX 1 13 7 14 8 15 9 16 17 17 10 18 16 19 11 20 15 21 12 22
REMARK SMILES IDX 13 23 18 24 14 26 26 27 27 28 28 29 29 30 30 31 33 32 31 33
REMARK SMILES IDX 32 34
REMARK H PARENT 12 25
ROOT
ATOM      1  O   UNL     1       6.419 -15.190 -44.997  1.00  0.00    -0.490 OA
ENDROOT
BRANCH   1   2
ATOM      2  C   UNL     1       5.950 -16.138 -44.123  1.00  0.00     0.163 A 
ATOM      3  C   UNL     1       4.891 -15.740 -43.292  1.00  0.00     0.161 A 
ATOM      4  C   UNL     1       4.361 -16.658 -42.385  1.00  0.00     0.066 A 
ATOM      5  C   UNL     1       4.879 -17.974 -42.310  1.00  0.00     0.067 A 
ATOM      6  C   UNL     1       6.438 -17.446 -44.046  1.00  0.00     0.079 A 
ATOM      7  C   UNL     1       4.425 -18.967 -41.438  1.00  0.00     0.230 A 
ATOM      8  C   UNL     1       5.923 -18.372 -43.149  1.00  0.00     0.081 A 
ATOM      9  N   UNL     1       4.942 -20.210 -41.364  1.00  0.00    -0.201 NA
ATOM     10  N   UNL     1       6.443 -19.605 -43.116  1.00  0.00    -0.236 NA
ATOM     11  C   UNL     1       5.925 -20.467 -42.228  1.00  0.00     0.226 A 
BRANCH   3  12
ATOM     12  O   UNL     1       4.464 -14.444 -43.429  1.00  0.00    -0.493 OA
ATOM     13  C   UNL     1       3.181 -14.227 -43.998  1.00  0.00     0.278 C 
ENDBRANCH   3  12
BRANCH   7  14
ATOM     14  O   UNL     1       3.421 -18.618 -40.539  1.00  0.00    -0.435 OA
BRANCH  14  15
ATOM     15  C   UNL     1       2.164 -19.093 -40.830  1.00  0.00     0.165 A 
ATOM     16  C   UNL     1       1.849 -20.392 -40.436  1.00  0.00     0.052 A 
ATOM     17  C   UNL     1       1.200 -18.273 -41.431  1.00  0.00     0.175 A 
ATOM     18  C   UNL     1       0.573 -20.921 -40.666  1.00  0.00     0.031 A 
ATOM     19  C   UNL     1      -0.089 -18.781 -41.673  1.00  0.00     0.039 A 
ATOM     20  C   UNL     1      -0.373 -20.092 -41.287  1.00  0.00     0.049 A 
ATOM     21  C   UNL     1      -1.275 -18.250 -42.252  1.00  0.00     0.034 A 
ATOM     22  N   UNL     1      -1.682 -20.340 -41.631  1.00  0.00    -0.359 N 
ATOM     23  C   UNL     1      -2.245 -19.231 -42.216  1.00  0.00     0.013 A 
ATOM     24  F   UNL     1       1.498 -17.005 -41.755  1.00  0.00    -0.202 F 
ATOM     25  H   UNL     1      -2.158 -21.218 -41.475  1.00  0.00     0.166 HD
ATOM     26  C   UNL     1      -3.653 -19.222 -42.682  1.00  0.00     0.064 C 
ENDBRANCH  14  15
ENDBRANCH   7  14
ENDBRANCH   1   2
BRANCH   1  27
ATOM     27  C   UNL     1       7.716 -14.635 -44.787  1.00  0.00     0.231 C 
BRANCH  27  28
ATOM     28  C   UNL     1       7.688 -13.313 -44.025  1.00  0.00     0.057 C 
BRANCH  28  29
ATOM     29  C   UNL     1       6.896 -12.168 -44.672  1.00  0.00     0.088 C 
BRANCH  29  30
ATOM     30  N   UNL     1       6.670 -11.016 -43.790  1.00  0.00    -0.303 NA
ATOM     31  C   UNL     1       7.510 -11.037 -42.584  1.00  0.00     0.084 C 
ATOM     32  C   UNL     1       7.043  -9.762 -44.456  1.00  0.00     0.084 C 
ATOM     33  C   UNL     1       7.491  -9.592 -42.099  1.00  0.00     0.017 C 
ATOM     34  C   UNL     1       7.086  -8.766 -43.311  1.00  0.00     0.017 C 
ENDBRANCH  29  30
ENDBRANCH  28  29
ENDBRANCH  27  28
ENDBRANCH   1  27
TORSDOF 8
ENDMDL
MODEL 13
REMARK minimizedAffinity -7.78053045
REMARK minimizedRMSD -1
REMARK SMILES COc1cc2c(Oc3ccc4[nH]c(C)cc4c3F)ncnc2cc1OCCCN1CCCC1
REMARK SMILES IDX 25 1 24 2 3 3 4 4 5 5 23 6 6 7 22 8 19 9 21 10 20 11 2 12
REMARK SMILES IDX 1 13 7 14 8 15 9 16 17 17 10 18 16 19 11 20 15 21 12 22
REMARK SMILES IDX 13 23 18 24 14 26 26 27 27 28 28 29 29 30 30 31 33 32 31 33
REMARK SMILES IDX 32 34
REMARK H PARENT 12 25
ROOT
ATOM      1  O   UNL     1       0.611  -6.729 -44.445  1.00  0.00    -0.490 OA
ENDROOT
BRANCH   1   2
ATOM      2  C   UNL     1       0.387  -7.998 -44.915  1.00  0.00     0.163 A 
ATOM      3  C   UNL     1       1.389  -8.944 -44.642  1.00  0.00     0.161 A 
ATOM      4  C   UNL     1       1.219 -10.255 -45.084  1.00  0.00     0.066 A 
ATOM      5  C   UNL     1       0.051 -10.630 -45.792  1.00  0.00     0.067 A 
ATOM      6  C   UNL     1      -0.767  -8.390 -45.601  1.00  0.00     0.079 A 
ATOM      7  C   UNL     1      -0.216 -11.911 -46.281  1.00  0.00     0.230 A 
ATOM      8  C   UNL     1      -0.950  -9.691 -46.049  1.00  0.00     0.081 A 
ATOM      9  N   UNL     1      -1.324 -12.248 -46.972  1.00  0.00    -0.201 NA
ATOM     10  N   UNL     1      -2.073  -9.998 -46.712  1.00  0.00    -0.236 NA
ATOM     11  C   UNL     1      -2.208 -11.263 -47.138  1.00  0.00     0.226 A 
BRANCH   3  12
ATOM     12  O   UNL     1       2.487  -8.485 -43.960  1.00  0.00    -0.493 OA
ATOM     13  C   UNL     1       3.736  -8.493 -44.638  1.00  0.00     0.278 C 
ENDBRANCH   3  12
BRANCH   7  14
ATOM     14  O   UNL     1       0.768 -12.881 -46.103  1.00  0.00    -0.435 OA
BRANCH  14  15
ATOM     15  C   UNL     1       0.508 -13.829 -45.141  1.00  0.00     0.165 A 
ATOM     16  C   UNL     1       0.853 -13.533 -43.823  1.00  0.00     0.052 A 
ATOM     17  C   UNL     1      -0.154 -15.021 -45.459  1.00  0.00     0.175 A 
ATOM     18  C   UNL     1       0.577 -14.439 -42.792  1.00  0.00     0.031 A 
ATOM     19  C   UNL     1      -0.442 -15.947 -44.441  1.00  0.00     0.039 A 
ATOM     20  C   UNL     1      -0.069 -15.637 -43.132  1.00  0.00     0.049 A 
ATOM     21  C   UNL     1      -1.074 -17.220 -44.404  1.00  0.00     0.034 A 
ATOM     22  N   UNL     1      -0.458 -16.693 -42.339  1.00  0.00    -0.359 N 
ATOM     23  C   UNL     1      -1.073 -17.662 -43.096  1.00  0.00     0.013 A 
ATOM     24  F   UNL     1      -0.530 -15.269 -46.723  1.00  0.00    -0.202 F 
ATOM     25  H   UNL     1      -0.309 -16.744 -41.341  1.00  0.00     0.166 HD
ATOM     26  C   UNL     1      -1.595 -18.911 -42.492  1.00  0.00     0.064 C 
ENDBRANCH  14  15
ENDBRANCH   7  14
ENDBRANCH   1   2
BRANCH   1  27
ATOM     27  C   UNL     1       0.528  -5.630 -45.350  1.00  0.00     0.231 C 
BRANCH  27  28
ATOM     28  C   UNL     1      -0.739  -4.799 -45.173  1.00  0.00     0.057 C 
BRANCH  28  29
ATOM     29  C   UNL     1      -1.494  -4.980 -43.848  1.00  0.00     0.088 C 
BRANCH  29  30
ATOM     30  N   UNL     1      -2.879  -5.444 -43.999  1.00  0.00    -0.303 NA
ATOM     31  C   UNL     1      -3.258  -5.685 -45.399  1.00  0.00     0.084 C 
ATOM     32  C   UNL     1      -3.070  -6.750 -43.355  1.00  0.00     0.084 C 
ATOM     33  C   UNL     1      -4.479  -6.592 -45.298  1.00  0.00     0.017 C 
ATOM     34  C   UNL     1      -4.404  -7.215 -43.911  1.00  0.00     0.017 C 
ENDBRANCH  29  30
ENDBRANCH  28  29
ENDBRANCH  27  28
ENDBRANCH   1  27
TORSDOF 8
ENDMDL
MODEL 14
REMARK minimizedAffinity -7.76509857
REMARK minimizedRMSD -1
REMARK SMILES COc1cc2c(Oc3ccc4[nH]c(C)cc4c3F)ncnc2cc1OCCCN1CCCC1
REMARK SMILES IDX 25 1 24 2 3 3 4 4 5 5 23 6 6 7 22 8 19 9 21 10 20 11 2 12
REMARK SMILES IDX 1 13 7 14 8 15 9 16 17 17 10 18 16 19 11 20 15 21 12 22
REMARK SMILES IDX 13 23 18 24 14 26 26 27 27 28 28 29 29 30 30 31 33 32 31 33
REMARK SMILES IDX 32 34
REMARK H PARENT 12 25
ROOT
ATOM      1  O   UNL     1       0.402 -10.396 -45.400  1.00  0.00    -0.490 OA
ENDROOT
BRANCH   1   2
ATOM      2  C   UNL     1       1.620  -9.830 -45.119  1.00  0.00     0.163 A 
ATOM      3  C   UNL     1       2.742 -10.489 -45.646  1.00  0.00     0.161 A 
ATOM      4  C   UNL     1       4.011  -9.961 -45.405  1.00  0.00     0.066 A 
ATOM      5  C   UNL     1       4.164  -8.774 -44.648  1.00  0.00     0.067 A 
ATOM      6  C   UNL     1       1.789  -8.649 -44.388  1.00  0.00     0.079 A 
ATOM      7  C   UNL     1       5.384  -8.165 -44.347  1.00  0.00     0.230 A 
ATOM      8  C   UNL     1       3.044  -8.112 -44.139  1.00  0.00     0.081 A 
ATOM      9  N   UNL     1       5.515  -7.045 -43.608  1.00  0.00    -0.201 NA
ATOM     10  N   UNL     1       3.139  -6.985 -43.421  1.00  0.00    -0.236 NA
ATOM     11  C   UNL     1       4.369  -6.504 -43.193  1.00  0.00     0.226 A 
BRANCH   3  12
ATOM     12  O   UNL     1       2.496 -11.636 -46.355  1.00  0.00    -0.493 OA
ATOM     13  C   UNL     1       2.896 -12.870 -45.776  1.00  0.00     0.278 C 
ENDBRANCH   3  12
BRANCH   7  14
ATOM     14  O   UNL     1       6.542  -8.805 -44.782  1.00  0.00    -0.435 OA
BRANCH  14  15
ATOM     15  C   UNL     1       7.021  -9.800 -43.962  1.00  0.00     0.165 A 
ATOM     16  C   UNL     1       7.200  -9.504 -42.612  1.00  0.00     0.052 A 
ATOM     17  C   UNL     1       7.246 -11.095 -44.448  1.00  0.00     0.175 A 
ATOM     18  C   UNL     1       7.645 -10.485 -41.717  1.00  0.00     0.031 A 
ATOM     19  C   UNL     1       7.693 -12.097 -43.569  1.00  0.00     0.039 A 
ATOM     20  C   UNL     1       7.884 -11.770 -42.225  1.00  0.00     0.049 A 
ATOM     21  C   UNL     1       8.020 -13.474 -43.714  1.00  0.00     0.034 A 
ATOM     22  N   UNL     1       8.318 -12.911 -41.590  1.00  0.00    -0.359 N 
ATOM     23  C   UNL     1       8.403 -13.955 -42.479  1.00  0.00     0.013 A 
ATOM     24  F   UNL     1       7.016 -11.381 -45.739  1.00  0.00    -0.202 F 
ATOM     25  H   UNL     1       8.543 -12.967 -40.606  1.00  0.00     0.166 HD
ATOM     26  C   UNL     1       8.844 -15.307 -42.058  1.00  0.00     0.064 C 
ENDBRANCH  14  15
ENDBRANCH   7  14
ENDBRANCH   1   2
BRANCH   1  27
ATOM     27  C   UNL     1      -0.354 -10.976 -44.338  1.00  0.00     0.231 C 
BRANCH  27  28
ATOM     28  C   UNL     1      -1.539 -10.118 -43.905  1.00  0.00     0.057 C 
BRANCH  28  29
ATOM     29  C   UNL     1      -2.713 -10.027 -44.890  1.00  0.00     0.088 C 
BRANCH  29  30
ATOM     30  N   UNL     1      -3.966  -9.548 -44.295  1.00  0.00    -0.303 NA
ATOM     31  C   UNL     1      -4.550 -10.496 -43.335  1.00  0.00     0.084 C 
ATOM     32  C   UNL     1      -3.741  -8.335 -43.497  1.00  0.00     0.084 C 
ATOM     33  C   UNL     1      -5.502  -9.640 -42.507  1.00  0.00     0.017 C 
ATOM     34  C   UNL     1      -5.025  -8.208 -42.698  1.00  0.00     0.017 C 
ENDBRANCH  29  30
ENDBRANCH  28  29
ENDBRANCH  27  28
ENDBRANCH   1  27
TORSDOF 8
ENDMDL
MODEL 15
REMARK minimizedAffinity -7.71251154
REMARK minimizedRMSD -1
REMARK SMILES COc1cc2c(Oc3ccc4[nH]c(C)cc4c3F)ncnc2cc1OCCCN1CCCC1
REMARK SMILES IDX 25 1 24 2 3 3 4 4 5 5 23 6 6 7 22 8 19 9 21 10 20 11 2 12
REMARK SMILES IDX 1 13 7 14 8 15 9 16 17 17 10 18 16 19 11 20 15 21 12 22
REMARK SMILES IDX 13 23 18 24 14 26 26 27 27 28 28 29 29 30 30 31 33 32 31 33
REMARK SMILES IDX 32 34
REMARK H PARENT 12 25
ROOT
ATOM      1  O   UNL     1       6.799 -10.971 -43.891  1.00  0.00    -0.490 OA
ENDROOT
BRANCH   1   2
ATOM      2  C   UNL     1       6.874 -12.340 -43.934  1.00  0.00     0.163 A 
ATOM      3  C   UNL     1       6.921 -12.995 -42.693  1.00  0.00     0.161 A 
ATOM      4  C   UNL     1       6.988 -14.388 -42.665  1.00  0.00     0.066 A 
ATOM      5  C   UNL     1       7.001 -15.130 -43.871  1.00  0.00     0.067 A 
ATOM      6  C   UNL     1       6.870 -13.090 -45.114  1.00  0.00     0.079 A 
ATOM      7  C   UNL     1       7.070 -16.523 -43.957  1.00  0.00     0.230 A 
ATOM      8  C   UNL     1       6.938 -14.477 -45.104  1.00  0.00     0.081 A 
ATOM      9  N   UNL     1       7.102 -17.216 -45.113  1.00  0.00    -0.201 NA
ATOM     10  N   UNL     1       6.944 -15.136 -46.270  1.00  0.00    -0.236 NA
ATOM     11  C   UNL     1       7.022 -16.474 -46.218  1.00  0.00     0.226 A 
BRANCH   3  12
ATOM     12  O   UNL     1       6.915 -12.192 -41.581  1.00  0.00    -0.493 OA
ATOM     13  C   UNL     1       7.716 -12.587 -40.476  1.00  0.00     0.278 C 
ENDBRANCH   3  12
BRANCH   7  14
ATOM     14  O   UNL     1       7.188 -17.231 -42.762  1.00  0.00    -0.435 OA
BRANCH  14  15
ATOM     15  C   UNL     1       6.197 -18.150 -42.510  1.00  0.00     0.165 A 
ATOM     16  C   UNL     1       6.493 -19.499 -42.699  1.00  0.00     0.052 A 
ATOM     17  C   UNL     1       4.953 -17.754 -42.002  1.00  0.00     0.175 A 
ATOM     18  C   UNL     1       5.541 -20.487 -42.420  1.00  0.00     0.031 A 
ATOM     19  C   UNL     1       3.980 -18.728 -41.714  1.00  0.00     0.039 A 
ATOM     20  C   UNL     1       4.294 -20.070 -41.931  1.00  0.00     0.049 A 
ATOM     21  C   UNL     1       2.650 -18.686 -41.211  1.00  0.00     0.034 A 
ATOM     22  N   UNL     1       3.187 -20.807 -41.577  1.00  0.00    -0.359 N 
ATOM     23  C   UNL     1       2.181 -19.981 -41.135  1.00  0.00     0.013 A 
ATOM     24  F   UNL     1       4.699 -16.457 -41.772  1.00  0.00    -0.202 F 
ATOM     25  H   UNL     1       3.127 -21.814 -41.636  1.00  0.00     0.166 HD
ATOM     26  C   UNL     1       0.872 -20.516 -40.686  1.00  0.00     0.064 C 
ENDBRANCH  14  15
ENDBRANCH   7  14
ENDBRANCH   1   2
BRANCH   1  27
ATOM     27  C   UNL     1       7.517 -10.207 -44.858  1.00  0.00     0.231 C 
BRANCH  27  28
ATOM     28  C   UNL     1       6.807  -8.915 -45.252  1.00  0.00     0.057 C 
BRANCH  28  29
ATOM     29  C   UNL     1       7.215  -7.650 -44.484  1.00  0.00     0.088 C 
BRANCH  29  30
ATOM     30  N   UNL     1       6.131  -7.038 -43.705  1.00  0.00    -0.303 NA
ATOM     31  C   UNL     1       4.842  -7.036 -44.412  1.00  0.00     0.084 C 
ATOM     32  C   UNL     1       5.861  -7.808 -42.485  1.00  0.00     0.084 C 
ATOM     33  C   UNL     1       3.816  -6.842 -43.302  1.00  0.00     0.017 C 
ATOM     34  C   UNL     1       4.524  -7.257 -42.021  1.00  0.00     0.017 C 
ENDBRANCH  29  30
ENDBRANCH  28  29
ENDBRANCH  27  28
ENDBRANCH   1  27
TORSDOF 8
ENDMDL
MODEL 16
REMARK minimizedAffinity -7.67422152
REMARK minimizedRMSD -1
REMARK SMILES COc1cc2c(Oc3ccc4[nH]c(C)cc4c3F)ncnc2cc1OCCCN1CCCC1
REMARK SMILES IDX 25 1 24 2 3 3 4 4 5 5 23 6 6 7 22 8 19 9 21 10 20 11 2 12
REMARK SMILES IDX 1 13 7 14 8 15 9 16 17 17 10 18 16 19 11 20 15 21 12 22
REMARK SMILES IDX 13 23 18 24 14 26 26 27 27 28 28 29 29 30 30 31 33 32 31 33
REMARK SMILES IDX 32 34
REMARK H PARENT 12 25
ROOT
ATOM      1  O   UNL     1       5.299 -10.746 -44.886  1.00  0.00    -0.490 OA
ENDROOT
BRANCH   1   2
ATOM      2  C   UNL     1       4.403  -9.707 -44.915  1.00  0.00     0.163 A 
ATOM      3  C   UNL     1       3.189  -9.958 -45.574  1.00  0.00     0.161 A 
ATOM      4  C   UNL     1       2.230  -8.947 -45.632  1.00  0.00     0.066 A 
ATOM      5  C   UNL     1       2.475  -7.689 -45.030  1.00  0.00     0.067 A 
ATOM      6  C   UNL     1       4.621  -8.464 -44.311  1.00  0.00     0.079 A 
ATOM      7  C   UNL     1       1.587  -6.610 -45.032  1.00  0.00     0.230 A 
ATOM      8  C   UNL     1       3.677  -7.447 -44.361  1.00  0.00     0.081 A 
ATOM      9  N   UNL     1       1.842  -5.411 -44.472  1.00  0.00    -0.201 NA
ATOM     10  N   UNL     1       3.952  -6.275 -43.774  1.00  0.00    -0.236 NA
ATOM     11  C   UNL     1       3.020  -5.315 -43.854  1.00  0.00     0.226 A 
BRANCH   3  12
ATOM     12  O   UNL     1       3.047 -11.201 -46.136  1.00  0.00    -0.493 OA
ATOM     13  C   UNL     1       1.906 -11.964 -45.773  1.00  0.00     0.278 C 
ENDBRANCH   3  12
BRANCH   7  14
ATOM     14  O   UNL     1       0.390  -6.770 -45.728  1.00  0.00    -0.435 OA
BRANCH  14  15
ATOM     15  C   UNL     1      -0.731  -6.963 -44.956  1.00  0.00     0.165 A 
ATOM     16  C   UNL     1      -1.296  -5.851 -44.335  1.00  0.00     0.052 A 
ATOM     17  C   UNL     1      -1.336  -8.223 -44.859  1.00  0.00     0.175 A 
ATOM     18  C   UNL     1      -2.461  -5.974 -43.568  1.00  0.00     0.031 A 
ATOM     19  C   UNL     1      -2.508  -8.372 -44.095  1.00  0.00     0.039 A 
ATOM     20  C   UNL     1      -3.042  -7.246 -43.466  1.00  0.00     0.049 A 
ATOM     21  C   UNL     1      -3.357  -9.469 -43.782  1.00  0.00     0.034 A 
ATOM     22  N   UNL     1      -4.170  -7.657 -42.793  1.00  0.00    -0.359 N 
ATOM     23  C   UNL     1      -4.377  -9.004 -42.976  1.00  0.00     0.013 A 
ATOM     24  F   UNL     1      -0.814  -9.275 -45.508  1.00  0.00    -0.202 F 
ATOM     25  H   UNL     1      -4.759  -7.050 -42.240  1.00  0.00     0.166 HD
ATOM     26  C   UNL     1      -5.528  -9.709 -42.362  1.00  0.00     0.064 C 
ENDBRANCH  14  15
ENDBRANCH   7  14
ENDBRANCH   1   2
BRANCH   1  27
ATOM     27  C   UNL     1       6.663 -10.494 -45.221  1.00  0.00     0.231 C 
BRANCH  27  28
ATOM     28  C   UNL     1       7.636 -11.449 -44.535  1.00  0.00     0.057 C 
BRANCH  28  29
ATOM     29  C   UNL     1       7.036 -12.740 -43.961  1.00  0.00     0.088 C 
BRANCH  29  30
ATOM     30  N   UNL     1       6.876 -12.736 -42.501  1.00  0.00    -0.303 NA
ATOM     31  C   UNL     1       7.436 -13.932 -41.855  1.00  0.00     0.084 C 
ATOM     32  C   UNL     1       7.622 -11.627 -41.892  1.00  0.00     0.084 C 
ATOM     33  C   UNL     1       7.614 -13.513 -40.400  1.00  0.00     0.017 C 
ATOM     34  C   UNL     1       7.636 -11.992 -40.419  1.00  0.00     0.017 C 
ENDBRANCH  29  30
ENDBRANCH  28  29
ENDBRANCH  27  28
ENDBRANCH   1  27
TORSDOF 8
ENDMDL
MODEL 17
REMARK minimizedAffinity -7.66350031
REMARK minimizedRMSD -1
REMARK SMILES COc1cc2c(Oc3ccc4[nH]c(C)cc4c3F)ncnc2cc1OCCCN1CCCC1
REMARK SMILES IDX 25 1 24 2 3 3 4 4 5 5 23 6 6 7 22 8 19 9 21 10 20 11 2 12
REMARK SMILES IDX 1 13 7 14 8 15 9 16 17 17 10 18 16 19 11 20 15 21 12 22
REMARK SMILES IDX 13 23 18 24 14 26 26 27 27 28 28 29 29 30 30 31 33 32 31 33
REMARK SMILES IDX 32 34
REMARK H PARENT 12 25
ROOT
ATOM      1  O   UNL     1       2.923 -16.191 -43.141  1.00  0.00    -0.490 OA
ENDROOT
BRANCH   1   2
ATOM      2  C   UNL     1       2.465 -15.056 -43.761  1.00  0.00     0.163 A 
ATOM      3  C   UNL     1       1.088 -15.012 -44.030  1.00  0.00     0.161 A 
ATOM      4  C   UNL     1       0.556 -13.882 -44.651  1.00  0.00     0.066 A 
ATOM      5  C   UNL     1       1.392 -12.792 -44.998  1.00  0.00     0.067 A 
ATOM      6  C   UNL     1       3.273 -13.964 -44.095  1.00  0.00     0.079 A 
ATOM      7  C   UNL     1       0.963 -11.619 -45.623  1.00  0.00     0.230 A 
ATOM      8  C   UNL     1       2.759 -12.832 -44.715  1.00  0.00     0.081 A 
ATOM      9  N   UNL     1       1.775 -10.598 -45.966  1.00  0.00    -0.201 NA
ATOM     10  N   UNL     1       3.588 -11.825 -45.021  1.00  0.00    -0.236 NA
ATOM     11  C   UNL     1       3.055 -10.755 -45.628  1.00  0.00     0.226 A 
BRANCH   3  12
ATOM     12  O   UNL     1       0.362 -16.118 -43.668  1.00  0.00    -0.493 OA
ATOM     13  C   UNL     1      -0.684 -16.534 -44.533  1.00  0.00     0.278 C 
ENDBRANCH   3  12
BRANCH   7  14
ATOM     14  O   UNL     1      -0.381 -11.539 -45.979  1.00  0.00    -0.435 OA
BRANCH  14  15
ATOM     15  C   UNL     1      -1.129 -10.611 -45.294  1.00  0.00     0.165 A 
ATOM     16  C   UNL     1      -0.802 -10.364 -43.961  1.00  0.00     0.052 A 
ATOM     17  C   UNL     1      -2.136  -9.876 -45.932  1.00  0.00     0.175 A 
ATOM     18  C   UNL     1      -1.498  -9.401 -43.220  1.00  0.00     0.031 A 
ATOM     19  C   UNL     1      -2.850  -8.903 -45.209  1.00  0.00     0.039 A 
ATOM     20  C   UNL     1      -2.516  -8.689 -43.870  1.00  0.00     0.049 A 
ATOM     21  C   UNL     1      -3.907  -8.006 -45.525  1.00  0.00     0.034 A 
ATOM     22  N   UNL     1      -3.351  -7.702 -43.399  1.00  0.00    -0.359 N 
ATOM     23  C   UNL     1      -4.200  -7.274 -44.392  1.00  0.00     0.013 A 
ATOM     24  F   UNL     1      -2.404 -10.084 -47.231  1.00  0.00    -0.202 F 
ATOM     25  H   UNL     1      -3.339  -7.346 -42.454  1.00  0.00     0.166 HD
ATOM     26  C   UNL     1      -5.205  -6.210 -44.156  1.00  0.00     0.064 C 
ENDBRANCH  14  15
ENDBRANCH   7  14
ENDBRANCH   1   2
BRANCH   1  27
ATOM     27  C   UNL     1       4.326 -16.352 -42.938  1.00  0.00     0.231 C 
BRANCH  27  28
ATOM     28  C   UNL     1       4.662 -17.256 -41.755  1.00  0.00     0.057 C 
BRANCH  28  29
ATOM     29  C   UNL     1       4.482 -18.765 -41.976  1.00  0.00     0.088 C 
BRANCH  29  30
ATOM     30  N   UNL     1       3.651 -19.430 -40.964  1.00  0.00    -0.303 NA
ATOM     31  C   UNL     1       2.695 -18.522 -40.314  1.00  0.00     0.084 C 
ATOM     32  C   UNL     1       2.798 -20.457 -41.576  1.00  0.00     0.084 C 
ATOM     33  C   UNL     1       1.652 -19.456 -39.713  1.00  0.00     0.017 C 
ATOM     34  C   UNL     1       1.792 -20.763 -40.481  1.00  0.00     0.017 C 
ENDBRANCH  29  30
ENDBRANCH  28  29
ENDBRANCH  27  28
ENDBRANCH   1  27
TORSDOF 8
ENDMDL
MODEL 18
REMARK minimizedAffinity -7.64109755
REMARK minimizedRMSD -1
REMARK SMILES COc1cc2c(Oc3ccc4[nH]c(C)cc4c3F)ncnc2cc1OCCCN1CCCC1
REMARK SMILES IDX 25 1 24 2 3 3 4 4 5 5 23 6 6 7 22 8 19 9 21 10 20 11 2 12
REMARK SMILES IDX 1 13 7 14 8 15 9 16 17 17 10 18 16 19 11 20 15 21 12 22
REMARK SMILES IDX 13 23 18 24 14 26 26 27 27 28 28 29 29 30 30 31 33 32 31 33
REMARK SMILES IDX 32 34
REMARK H PARENT 12 25
ROOT
ATOM      1  O   UNL     1       7.082 -15.362 -44.669  1.00  0.00    -0.490 OA
ENDROOT
BRANCH   1   2
ATOM      2  C   UNL     1       6.483 -16.323 -43.894  1.00  0.00     0.163 A 
ATOM      3  C   UNL     1       5.477 -15.874 -43.023  1.00  0.00     0.161 A 
ATOM      4  C   UNL     1       4.822 -16.801 -42.213  1.00  0.00     0.066 A 
ATOM      5  C   UNL     1       5.160 -18.175 -42.274  1.00  0.00     0.067 A 
ATOM      6  C   UNL     1       6.792 -17.685 -43.954  1.00  0.00     0.079 A 
ATOM      7  C   UNL     1       4.570 -19.183 -41.507  1.00  0.00     0.230 A 
ATOM      8  C   UNL     1       6.150 -18.620 -43.153  1.00  0.00     0.081 A 
ATOM      9  N   UNL     1       4.917 -20.485 -41.562  1.00  0.00    -0.201 NA
ATOM     10  N   UNL     1       6.502 -19.909 -43.249  1.00  0.00    -0.236 NA
ATOM     11  C   UNL     1       5.866 -20.780 -42.452  1.00  0.00     0.226 A 
BRANCH   3  12
ATOM     12  O   UNL     1       5.227 -14.526 -43.026  1.00  0.00    -0.493 OA
ATOM     13  C   UNL     1       4.054 -14.073 -43.686  1.00  0.00     0.278 C 
ENDBRANCH   3  12
BRANCH   7  14
ATOM     14  O   UNL     1       3.612 -18.796 -40.573  1.00  0.00    -0.435 OA
BRANCH  14  15
ATOM     15  C   UNL     1       2.316 -19.158 -40.859  1.00  0.00     0.165 A 
ATOM     16  C   UNL     1       1.883 -20.416 -40.444  1.00  0.00     0.052 A 
ATOM     17  C   UNL     1       1.433 -18.262 -41.475  1.00  0.00     0.175 A 
ATOM     18  C   UNL     1       0.563 -20.828 -40.668  1.00  0.00     0.031 A 
ATOM     19  C   UNL     1       0.102 -18.653 -41.710  1.00  0.00     0.039 A 
ATOM     20  C   UNL     1      -0.302 -19.925 -41.304  1.00  0.00     0.049 A 
ATOM     21  C   UNL     1      -1.029 -18.024 -42.301  1.00  0.00     0.034 A 
ATOM     22  N   UNL     1      -1.628 -20.057 -41.647  1.00  0.00    -0.359 N 
ATOM     23  C   UNL     1      -2.085 -18.910 -42.250  1.00  0.00     0.013 A 
ATOM     24  F   UNL     1       1.847 -17.033 -41.818  1.00  0.00    -0.202 F 
ATOM     25  H   UNL     1      -2.184 -20.884 -41.477  1.00  0.00     0.166 HD
ATOM     26  C   UNL     1      -3.487 -18.778 -42.719  1.00  0.00     0.064 C 
ENDBRANCH  14  15
ENDBRANCH   7  14
ENDBRANCH   1   2
BRANCH   1  27
ATOM     27  C   UNL     1       7.867 -15.765 -45.790  1.00  0.00     0.231 C 
BRANCH  27  28
ATOM     28  C   UNL     1       9.169 -14.982 -45.925  1.00  0.00     0.057 C 
BRANCH  28  29
ATOM     29  C   UNL     1       9.421 -13.889 -44.876  1.00  0.00     0.088 C 
BRANCH  29  30
ATOM     30  N   UNL     1      10.814 -13.797 -44.421  1.00  0.00    -0.303 NA
ATOM     31  C   UNL     1      10.943 -13.777 -42.957  1.00  0.00     0.084 C 
ATOM     32  C   UNL     1      11.579 -14.984 -44.824  1.00  0.00     0.084 C 
ATOM     33  C   UNL     1      12.394 -14.174 -42.711  1.00  0.00     0.017 C 
ATOM     34  C   UNL     1      12.839 -14.881 -43.983  1.00  0.00     0.017 C 
ENDBRANCH  29  30
ENDBRANCH  28  29
ENDBRANCH  27  28
ENDBRANCH   1  27
TORSDOF 8
ENDMDL
MODEL 19
REMARK minimizedAffinity -7.60415506
REMARK minimizedRMSD -1
REMARK SMILES COc1cc2c(Oc3ccc4[nH]c(C)cc4c3F)ncnc2cc1OCCCN1CCCC1
REMARK SMILES IDX 25 1 24 2 3 3 4 4 5 5 23 6 6 7 22 8 19 9 21 10 20 11 2 12
REMARK SMILES IDX 1 13 7 14 8 15 9 16 17 17 10 18 16 19 11 20 15 21 12 22
REMARK SMILES IDX 13 23 18 24 14 26 26 27 27 28 28 29 29 30 30 31 33 32 31 33
REMARK SMILES IDX 32 34
REMARK H PARENT 12 25
ROOT
ATOM      1  O   UNL     1      -1.354 -11.516 -45.326  1.00  0.00    -0.490 OA
ENDROOT
BRANCH   1   2
ATOM      2  C   UNL     1       0.013 -11.644 -45.330  1.00  0.00     0.163 A 
ATOM      3  C   UNL     1       0.512 -12.922 -45.629  1.00  0.00     0.161 A 
ATOM      4  C   UNL     1       1.892 -13.118 -45.658  1.00  0.00     0.066 A 
ATOM      5  C   UNL     1       2.777 -12.043 -45.398  1.00  0.00     0.067 A 
ATOM      6  C   UNL     1       0.901 -10.590 -45.092  1.00  0.00     0.079 A 
ATOM      7  C   UNL     1       4.171 -12.131 -45.399  1.00  0.00     0.230 A 
ATOM      8  C   UNL     1       2.277 -10.769 -45.117  1.00  0.00     0.081 A 
ATOM      9  N   UNL     1       5.001 -11.103 -45.130  1.00  0.00    -0.201 NA
ATOM     10  N   UNL     1       3.074  -9.722 -44.868  1.00  0.00    -0.236 NA
ATOM     11  C   UNL     1       4.398  -9.938 -44.890  1.00  0.00     0.226 A 
BRANCH   3  12
ATOM     12  O   UNL     1      -0.421 -13.901 -45.855  1.00  0.00    -0.493 OA
ATOM     13  C   UNL     1      -0.029 -15.018 -46.640  1.00  0.00     0.278 C 
ENDBRANCH   3  12
BRANCH   7  14
ATOM     14  O   UNL     1       4.731 -13.388 -45.621  1.00  0.00    -0.435 OA
BRANCH  14  15
ATOM     15  C   UNL     1       5.148 -14.065 -44.500  1.00  0.00     0.165 A 
ATOM     16  C   UNL     1       6.221 -13.541 -43.781  1.00  0.00     0.052 A 
ATOM     17  C   UNL     1       4.468 -15.202 -44.045  1.00  0.00     0.175 A 
ATOM     18  C   UNL     1       6.667 -14.160 -42.607  1.00  0.00     0.031 A 
ATOM     19  C   UNL     1       4.897 -15.842 -42.868  1.00  0.00     0.039 A 
ATOM     20  C   UNL     1       5.987 -15.309 -42.178  1.00  0.00     0.049 A 
ATOM     21  C   UNL     1       4.461 -16.985 -42.143  1.00  0.00     0.034 A 
ATOM     22  N   UNL     1       6.201 -16.110 -41.080  1.00  0.00    -0.359 N 
ATOM     23  C   UNL     1       5.281 -17.131 -41.042  1.00  0.00     0.013 A 
ATOM     24  F   UNL     1       3.402 -15.665 -44.715  1.00  0.00    -0.202 F 
ATOM     25  H   UNL     1       6.934 -15.965 -40.399  1.00  0.00     0.166 HD
ATOM     26  C   UNL     1       5.280 -18.143 -39.958  1.00  0.00     0.064 C 
ENDBRANCH  14  15
ENDBRANCH   7  14
ENDBRANCH   1   2
BRANCH   1  27
ATOM     27  C   UNL     1      -1.959 -10.528 -46.157  1.00  0.00     0.231 C 
BRANCH  27  28
ATOM     28  C   UNL     1      -2.725  -9.468 -45.371  1.00  0.00     0.057 C 
BRANCH  28  29
ATOM     29  C   UNL     1      -2.511  -9.458 -43.850  1.00  0.00     0.088 C 
BRANCH  29  30
ATOM     30  N   UNL     1      -3.752  -9.484 -43.065  1.00  0.00    -0.303 NA
ATOM     31  C   UNL     1      -4.574  -8.278 -43.243  1.00  0.00     0.084 C 
ATOM     32  C   UNL     1      -4.631 -10.575 -43.504  1.00  0.00     0.084 C 
ATOM     33  C   UNL     1      -5.960  -8.707 -42.778  1.00  0.00     0.017 C 
ATOM     34  C   UNL     1      -5.959 -10.227 -42.857  1.00  0.00     0.017 C 
ENDBRANCH  29  30
ENDBRANCH  28  29
ENDBRANCH  27  28
ENDBRANCH   1  27
TORSDOF 8
ENDMDL
MODEL 20
REMARK minimizedAffinity -7.60098934
REMARK minimizedRMSD -1
REMARK SMILES COc1cc2c(Oc3ccc4[nH]c(C)cc4c3F)ncnc2cc1OCCCN1CCCC1
REMARK SMILES IDX 25 1 24 2 3 3 4 4 5 5 23 6 6 7 22 8 19 9 21 10 20 11 2 12
REMARK SMILES IDX 1 13 7 14 8 15 9 16 17 17 10 18 16 19 11 20 15 21 12 22
REMARK SMILES IDX 13 23 18 24 14 26 26 27 27 28 28 29 29 30 30 31 33 32 31 33
REMARK SMILES IDX 32 34
REMARK H PARENT 12 25
ROOT
ATOM      1  O   UNL     1      -0.390  -9.295 -43.606  1.00  0.00    -0.490 OA
ENDROOT
BRANCH   1   2
ATOM      2  C   UNL     1       0.257 -10.363 -44.176  1.00  0.00     0.163 A 
ATOM      3  C   UNL     1       1.658 -10.280 -44.227  1.00  0.00     0.161 A 
ATOM      4  C   UNL     1       2.378 -11.336 -44.785  1.00  0.00     0.066 A 
ATOM      5  C   UNL     1       1.707 -12.478 -45.285  1.00  0.00     0.067 A 
ATOM      6  C   UNL     1      -0.388 -11.506 -44.659  1.00  0.00     0.079 A 
ATOM      7  C   UNL     1       2.329 -13.586 -45.865  1.00  0.00     0.230 A 
ATOM      8  C   UNL     1       0.314 -12.565 -45.219  1.00  0.00     0.081 A 
ATOM      9  N   UNL     1       1.675 -14.658 -46.356  1.00  0.00    -0.201 NA
ATOM     10  N   UNL     1      -0.364 -13.625 -45.676  1.00  0.00    -0.236 NA
ATOM     11  C   UNL     1       0.349 -14.623 -46.219  1.00  0.00     0.226 A 
BRANCH   3  12
ATOM     12  O   UNL     1       2.217  -9.131 -43.728  1.00  0.00    -0.493 OA
ATOM     13  C   UNL     1       2.991  -8.334 -44.614  1.00  0.00     0.278 C 
ENDBRANCH   3  12
BRANCH   7  14
ATOM     14  O   UNL     1       3.714 -13.538 -46.009  1.00  0.00    -0.435 OA
BRANCH  14  15
ATOM     15  C   UNL     1       4.444 -13.797 -44.872  1.00  0.00     0.165 A 
ATOM     16  C   UNL     1       4.058 -14.877 -44.080  1.00  0.00     0.052 A 
ATOM     17  C   UNL     1       5.587 -13.051 -44.559  1.00  0.00     0.175 A 
ATOM     18  C   UNL     1       4.784 -15.218 -42.933  1.00  0.00     0.031 A 
ATOM     19  C   UNL     1       6.333 -13.374 -43.411  1.00  0.00     0.039 A 
ATOM     20  C   UNL     1       5.915 -14.448 -42.624  1.00  0.00     0.049 A 
ATOM     21  C   UNL     1       7.505 -12.843 -42.805  1.00  0.00     0.034 A 
ATOM     22  N   UNL     1       6.802 -14.551 -41.577  1.00  0.00    -0.359 N 
ATOM     23  C   UNL     1       7.776 -13.586 -41.674  1.00  0.00     0.013 A 
ATOM     24  F   UNL     1       5.980 -12.048 -45.360  1.00  0.00    -0.202 F 
ATOM     25  H   UNL     1       6.741 -15.242 -40.842  1.00  0.00     0.166 HD
ATOM     26  C   UNL     1       8.865 -13.471 -40.674  1.00  0.00     0.064 C 
ENDBRANCH  14  15
ENDBRANCH   7  14
ENDBRANCH   1   2
BRANCH   1  27
ATOM     27  C   UNL     1      -0.889  -8.258 -44.449  1.00  0.00     0.231 C 
BRANCH  27  28
ATOM     28  C   UNL     1      -2.285  -8.544 -44.993  1.00  0.00     0.057 C 
BRANCH  28  29
ATOM     29  C   UNL     1      -3.461  -7.963 -44.196  1.00  0.00     0.088 C 
BRANCH  29  30
ATOM     30  N   UNL     1      -4.559  -8.909 -43.959  1.00  0.00    -0.303 NA
ATOM     31  C   UNL     1      -4.132 -10.315 -44.014  1.00  0.00     0.084 C 
ATOM     32  C   UNL     1      -5.099  -8.760 -42.602  1.00  0.00     0.084 C 
ATOM     33  C   UNL     1      -5.238 -11.063 -43.280  1.00  0.00     0.017 C 
ATOM     34  C   UNL     1      -5.936 -10.014 -42.427  1.00  0.00     0.017 C 
ENDBRANCH  29  30
ENDBRANCH  28  29
ENDBRANCH  27  28
ENDBRANCH   1  27
TORSDOF 8
ENDMDL
