MODEL 1
REMARK minimizedAffinity -9.50967503
REMARK minimizedRMSD -1
REMARK SMILES CC(C)(C)c1nc(-c2cccc(NS(=O)(=O)c3c(F)cccc3F)c2F)c(-c2ccnc(N)n2)s1
REMARK SMILES IDX 8 1 9 2 10 3 11 4 12 5 25 6 26 7 7 8 5 9 6 10 35 11 27 12
REMARK SMILES IDX 2 13 1 14 3 15 4 16 28 17 29 18 34 19 30 20 32 21 31 22
REMARK SMILES IDX 33 23 13 26 14 28 15 29 16 30 17 31 18 32 23 33 20 34 22 35
REMARK SMILES IDX 21 36 19 37 24 38
REMARK H PARENT 33 24 33 25 13 27
ROOT
ATOM      1  C   UNL     1       0.499  -7.803 -45.064  1.00  0.00     0.040 A 
ATOM      2  C   UNL     1       1.040  -6.694 -45.728  1.00  0.00     0.013 A 
ATOM      3  C   UNL     1       0.392  -5.456 -45.680  1.00  0.00     0.003 A 
ATOM      4  C   UNL     1      -0.792  -5.310 -44.953  1.00  0.00     0.030 A 
ATOM      5  C   UNL     1      -1.320  -6.396 -44.261  1.00  0.00     0.085 A 
ATOM      6  C   UNL     1      -0.677  -7.637 -44.327  1.00  0.00     0.156 A 
ATOM      7  F   UNL     1      -1.197  -8.665 -43.637  1.00  0.00    -0.204 F 
ENDROOT
BRANCH   1   8
ATOM      8  C   UNL     1       1.198  -9.076 -45.118  1.00  0.00     0.094 A 
ATOM      9  C   UNL     1       1.299 -11.258 -45.539  1.00  0.00     0.099 A 
ATOM     10  N   UNL     1       0.502 -10.210 -45.505  1.00  0.00    -0.240 NA
ATOM     11  S   UNL     1       2.921 -10.937 -45.051  1.00  0.00    -0.116 S 
ATOM     12  C   UNL     1       2.528  -9.282 -44.784  1.00  0.00     0.081 A 
BRANCH   9  13
ATOM     13  C   UNL     1       0.844 -12.661 -45.942  1.00  0.00     0.014 C 
ATOM     14  C   UNL     1       2.061 -13.515 -46.342  1.00  0.00     0.018 C 
ATOM     15  C   UNL     1       0.149 -13.349 -44.745  1.00  0.00     0.018 C 
ATOM     16  C   UNL     1      -0.165 -12.612 -47.105  1.00  0.00     0.018 C 
ENDBRANCH   9  13
BRANCH  12  17
ATOM     17  C   UNL     1       3.553  -8.382 -44.255  1.00  0.00     0.088 A 
ATOM     18  C   UNL     1       4.610  -7.951 -45.027  1.00  0.00     0.050 A 
ATOM     19  N   UNL     1       3.388  -8.018 -42.967  1.00  0.00    -0.212 NA
ATOM     20  C   UNL     1       5.507  -7.129 -44.391  1.00  0.00     0.117 A 
ATOM     21  C   UNL     1       4.309  -7.202 -42.452  1.00  0.00     0.220 A 
ATOM     22  N   UNL     1       5.384  -6.753 -43.106  1.00  0.00    -0.222 NA
BRANCH  21  23
ATOM     23  N   UNL     1       4.165  -6.835 -41.130  1.00  0.00    -0.368 N 
ATOM     24  H   UNL     1       3.596  -7.520 -40.648  1.00  0.00     0.159 HD
ATOM     25  H   UNL     1       5.071  -6.625 -40.730  1.00  0.00     0.159 HD
ENDBRANCH  21  23
ENDBRANCH  12  17
ENDBRANCH   1   8
BRANCH   5  26
ATOM     26  N   UNL     1      -2.497  -6.266 -43.456  1.00  0.00    -0.276 N 
ATOM     27  H   UNL     1      -2.523  -5.452 -42.838  1.00  0.00     0.180 HD
BRANCH  26  28
ATOM     28  S   UNL     1      -4.008  -6.479 -44.202  1.00  0.00     0.267 S 
ATOM     29  O   UNL     1      -3.770  -6.483 -45.629  1.00  0.00    -0.201 OA
ATOM     30  O   UNL     1      -4.929  -5.527 -43.617  1.00  0.00    -0.201 OA
BRANCH  28  31
ATOM     31  C   UNL     1      -4.473  -8.105 -43.746  1.00  0.00     0.158 A 
ATOM     32  C   UNL     1      -4.075  -9.211 -44.482  1.00  0.00     0.146 A 
ATOM     33  C   UNL     1      -5.258  -8.281 -42.613  1.00  0.00     0.146 A 
ATOM     34  C   UNL     1      -4.469 -10.493 -44.091  1.00  0.00     0.041 A 
ATOM     35  C   UNL     1      -5.659  -9.555 -42.213  1.00  0.00     0.041 A 
ATOM     36  C   UNL     1      -5.262 -10.667 -42.955  1.00  0.00     0.006 A 
ATOM     37  F   UNL     1      -3.321  -9.099 -45.581  1.00  0.00    -0.205 F 
ATOM     38  F   UNL     1      -5.679  -7.226 -41.899  1.00  0.00    -0.205 F 
ENDBRANCH  28  31
ENDBRANCH  26  28
ENDBRANCH   5  26
TORSDOF 7
ENDMDL
MODEL 2
REMARK minimizedAffinity -8.89767838
REMARK minimizedRMSD -1
REMARK SMILES CC(C)(C)c1nc(-c2cccc(NS(=O)(=O)c3c(F)cccc3F)c2F)c(-c2ccnc(N)n2)s1
REMARK SMILES IDX 8 1 9 2 10 3 11 4 12 5 25 6 26 7 7 8 5 9 6 10 35 11 27 12
REMARK SMILES IDX 2 13 1 14 3 15 4 16 28 17 29 18 34 19 30 20 32 21 31 22
REMARK SMILES IDX 33 23 13 26 14 28 15 29 16 30 17 31 18 32 23 33 20 34 22 35
REMARK SMILES IDX 21 36 19 37 24 38
REMARK H PARENT 33 24 33 25 13 27
ROOT
ATOM      1  C   UNL     1       1.337 -13.080 -45.930  1.00  0.00     0.040 A 
ATOM      2  C   UNL     1       0.789 -13.436 -47.169  1.00  0.00     0.013 A 
ATOM      3  C   UNL     1       0.350 -14.745 -47.397  1.00  0.00     0.003 A 
ATOM      4  C   UNL     1       0.438 -15.702 -46.384  1.00  0.00     0.030 A 
ATOM      5  C   UNL     1       0.949 -15.351 -45.138  1.00  0.00     0.085 A 
ATOM      6  C   UNL     1       1.404 -14.045 -44.921  1.00  0.00     0.156 A 
ATOM      7  F   UNL     1       1.878 -13.726 -43.706  1.00  0.00    -0.204 F 
ENDROOT
BRANCH   1   8
ATOM      8  C   UNL     1       1.775 -11.711 -45.713  1.00  0.00     0.094 A 
ATOM      9  C   UNL     1       3.339 -10.135 -45.572  1.00  0.00     0.099 A 
ATOM     10  N   UNL     1       3.130 -11.424 -45.745  1.00  0.00    -0.240 NA
ATOM     11  S   UNL     1       1.909  -9.210 -45.306  1.00  0.00    -0.116 S 
ATOM     12  C   UNL     1       0.948 -10.632 -45.439  1.00  0.00     0.081 A 
BRANCH   9  13
ATOM     13  C   UNL     1       4.726  -9.490 -45.570  1.00  0.00     0.014 C 
ATOM     14  C   UNL     1       5.808 -10.569 -45.389  1.00  0.00     0.018 C 
ATOM     15  C   UNL     1       4.974  -8.784 -46.923  1.00  0.00     0.018 C 
ATOM     16  C   UNL     1       4.851  -8.431 -44.458  1.00  0.00     0.018 C 
ENDBRANCH   9  13
BRANCH  12  17
ATOM     17  C   UNL     1      -0.498 -10.538 -45.235  1.00  0.00     0.088 A 
ATOM     18  C   UNL     1      -1.387 -10.626 -46.285  1.00  0.00     0.050 A 
ATOM     19  N   UNL     1      -0.887 -10.351 -43.958  1.00  0.00    -0.212 NA
ATOM     20  C   UNL     1      -2.711 -10.495 -45.947  1.00  0.00     0.117 A 
ATOM     21  C   UNL     1      -2.199 -10.255 -43.738  1.00  0.00     0.220 A 
ATOM     22  N   UNL     1      -3.138 -10.298 -44.688  1.00  0.00    -0.222 NA
BRANCH  21  23
ATOM     23  N   UNL     1      -2.612 -10.046 -42.438  1.00  0.00    -0.368 N 
ATOM     24  H   UNL     1      -1.857  -9.636 -41.904  1.00  0.00     0.159 HD
ATOM     25  H   UNL     1      -3.499  -9.558 -42.434  1.00  0.00     0.159 HD
ENDBRANCH  21  23
ENDBRANCH  12  17
ENDBRANCH   1   8
BRANCH   5  26
ATOM     26  N   UNL     1       0.997 -16.291 -44.060  1.00  0.00    -0.276 N 
ATOM     27  H   UNL     1       1.887 -16.345 -43.559  1.00  0.00     0.180 HD
BRANCH  26  28
ATOM     28  S   UNL     1      -0.294 -16.315 -42.956  1.00  0.00     0.267 S 
ATOM     29  O   UNL     1      -1.505 -16.145 -43.730  1.00  0.00    -0.201 OA
ATOM     30  O   UNL     1       0.023 -15.397 -41.883  1.00  0.00    -0.201 OA
BRANCH  28  31
ATOM     31  C   UNL     1      -0.291 -17.958 -42.346  1.00  0.00     0.158 A 
ATOM     32  C   UNL     1      -1.344 -18.827 -42.586  1.00  0.00     0.146 A 
ATOM     33  C   UNL     1       0.803 -18.392 -41.608  1.00  0.00     0.146 A 
ATOM     34  C   UNL     1      -1.309 -20.128 -42.081  1.00  0.00     0.041 A 
ATOM     35  C   UNL     1       0.849 -19.688 -41.096  1.00  0.00     0.041 A 
ATOM     36  C   UNL     1      -0.212 -20.561 -41.334  1.00  0.00     0.006 A 
ATOM     37  F   UNL     1      -2.421 -18.460 -43.290  1.00  0.00    -0.205 F 
ATOM     38  F   UNL     1       1.823 -17.562 -41.339  1.00  0.00    -0.205 F 
ENDBRANCH  28  31
ENDBRANCH  26  28
ENDBRANCH   5  26
TORSDOF 7
ENDMDL
MODEL 3
REMARK minimizedAffinity -8.81284428
REMARK minimizedRMSD -1
REMARK SMILES CC(C)(C)c1nc(-c2cccc(NS(=O)(=O)c3c(F)cccc3F)c2F)c(-c2ccnc(N)n2)s1
REMARK SMILES IDX 8 1 9 2 10 3 11 4 12 5 25 6 26 7 7 8 5 9 6 10 35 11 27 12
REMARK SMILES IDX 2 13 1 14 3 15 4 16 28 17 29 18 34 19 30 20 32 21 31 22
REMARK SMILES IDX 33 23 13 26 14 28 15 29 16 30 17 31 18 32 23 33 20 34 22 35
REMARK SMILES IDX 21 36 19 37 24 38
REMARK H PARENT 33 24 33 25 13 27
ROOT
ATOM      1  C   UNL     1       1.341 -12.979 -45.919  1.00  0.00     0.040 A 
ATOM      2  C   UNL     1       0.791 -13.351 -47.153  1.00  0.00     0.013 A 
ATOM      3  C   UNL     1       0.376 -14.668 -47.374  1.00  0.00     0.003 A 
ATOM      4  C   UNL     1       0.490 -15.620 -46.359  1.00  0.00     0.030 A 
ATOM      5  C   UNL     1       1.003 -15.254 -45.118  1.00  0.00     0.085 A 
ATOM      6  C   UNL     1       1.434 -13.939 -44.908  1.00  0.00     0.156 A 
ATOM      7  F   UNL     1       1.910 -13.607 -43.697  1.00  0.00    -0.204 F 
ENDROOT
BRANCH   1   8
ATOM      8  C   UNL     1       1.754 -11.601 -45.710  1.00  0.00     0.094 A 
ATOM      9  C   UNL     1       3.288  -9.995 -45.583  1.00  0.00     0.099 A 
ATOM     10  N   UNL     1       3.102 -11.289 -45.750  1.00  0.00    -0.240 NA
ATOM     11  S   UNL     1       1.841  -9.097 -45.315  1.00  0.00    -0.116 S 
ATOM     12  C   UNL     1       0.907 -10.537 -45.437  1.00  0.00     0.081 A 
BRANCH   9  13
ATOM     13  C   UNL     1       4.662  -9.323 -45.591  1.00  0.00     0.014 C 
ATOM     14  C   UNL     1       4.861  -8.547 -46.905  1.00  0.00     0.018 C 
ATOM     15  C   UNL     1       4.758  -8.318 -44.420  1.00  0.00     0.018 C 
ATOM     16  C   UNL     1       5.793 -10.355 -45.416  1.00  0.00     0.018 C 
ENDBRANCH   9  13
BRANCH  12  17
ATOM     17  C   UNL     1      -0.539 -10.470 -45.227  1.00  0.00     0.088 A 
ATOM     18  C   UNL     1      -1.431 -10.565 -46.274  1.00  0.00     0.050 A 
ATOM     19  N   UNL     1      -0.927 -10.301 -43.947  1.00  0.00    -0.212 NA
ATOM     20  C   UNL     1      -2.756 -10.459 -45.930  1.00  0.00     0.117 A 
ATOM     21  C   UNL     1      -2.239 -10.229 -43.722  1.00  0.00     0.220 A 
ATOM     22  N   UNL     1      -3.181 -10.281 -44.668  1.00  0.00    -0.222 NA
BRANCH  21  23
ATOM     23  N   UNL     1      -2.651 -10.039 -42.419  1.00  0.00    -0.368 N 
ATOM     24  H   UNL     1      -1.901  -9.620 -41.883  1.00  0.00     0.159 HD
ATOM     25  H   UNL     1      -3.546  -9.566 -42.407  1.00  0.00     0.159 HD
ENDBRANCH  21  23
ENDBRANCH  12  17
ENDBRANCH   1   8
BRANCH   5  26
ATOM     26  N   UNL     1       1.077 -16.189 -44.036  1.00  0.00    -0.276 N 
ATOM     27  H   UNL     1       1.971 -16.222 -43.540  1.00  0.00     0.180 HD
BRANCH  26  28
ATOM     28  S   UNL     1      -0.207 -16.239 -42.926  1.00  0.00     0.267 S 
ATOM     29  O   UNL     1      -1.427 -16.131 -43.697  1.00  0.00    -0.201 OA
ATOM     30  O   UNL     1       0.079 -15.286 -41.875  1.00  0.00    -0.201 OA
BRANCH  28  31
ATOM     31  C   UNL     1      -0.140 -17.866 -42.281  1.00  0.00     0.158 A 
ATOM     32  C   UNL     1       0.951 -18.319 -41.555  1.00  0.00     0.146 A 
ATOM     33  C   UNL     1      -1.217 -18.716 -42.504  1.00  0.00     0.146 A 
ATOM     34  C   UNL     1       0.972 -19.624 -41.060  1.00  0.00     0.041 A 
ATOM     35  C   UNL     1      -1.207 -20.022 -42.017  1.00  0.00     0.041 A 
ATOM     36  C   UNL     1      -0.108 -20.479 -41.290  1.00  0.00     0.006 A 
ATOM     37  F   UNL     1       2.014 -17.543 -41.312  1.00  0.00    -0.205 F 
ATOM     38  F   UNL     1      -2.273 -18.311 -43.226  1.00  0.00    -0.205 F 
ENDBRANCH  28  31
ENDBRANCH  26  28
ENDBRANCH   5  26
TORSDOF 7
ENDMDL
MODEL 4
REMARK minimizedAffinity -8.74311924
REMARK minimizedRMSD -1
REMARK SMILES CC(C)(C)c1nc(-c2cccc(NS(=O)(=O)c3c(F)cccc3F)c2F)c(-c2ccnc(N)n2)s1
REMARK SMILES IDX 8 1 9 2 10 3 11 4 12 5 25 6 26 7 7 8 5 9 6 10 35 11 27 12
REMARK SMILES IDX 2 13 1 14 3 15 4 16 28 17 29 18 34 19 30 20 32 21 31 22
REMARK SMILES IDX 33 23 13 26 14 28 15 29 16 30 17 31 18 32 23 33 20 34 22 35
REMARK SMILES IDX 21 36 19 37 24 38
REMARK H PARENT 33 24 33 25 13 27
ROOT
ATOM      1  C   UNL     1       7.508 -13.894 -44.896  1.00  0.00     0.040 A 
ATOM      2  C   UNL     1       8.592 -14.302 -45.685  1.00  0.00     0.013 A 
ATOM      3  C   UNL     1       8.794 -15.659 -45.959  1.00  0.00     0.003 A 
ATOM      4  C   UNL     1       7.906 -16.616 -45.464  1.00  0.00     0.030 A 
ATOM      5  C   UNL     1       6.807 -16.219 -44.708  1.00  0.00     0.085 A 
ATOM      6  C   UNL     1       6.620 -14.862 -44.420  1.00  0.00     0.156 A 
ATOM      7  F   UNL     1       5.543 -14.503 -43.703  1.00  0.00    -0.204 F 
ENDROOT
BRANCH   1   8
ATOM      8  C   UNL     1       7.312 -12.477 -44.634  1.00  0.00     0.094 A 
ATOM      9  C   UNL     1       6.753 -10.413 -45.247  1.00  0.00     0.099 A 
ATOM     10  N   UNL     1       6.924 -11.648 -45.673  1.00  0.00    -0.240 NA
ATOM     11  S   UNL     1       7.108 -10.181 -43.576  1.00  0.00    -0.116 S 
ATOM     12  C   UNL     1       7.509 -11.847 -43.415  1.00  0.00     0.081 A 
BRANCH   9  13
ATOM     13  C   UNL     1       6.309  -9.256 -46.143  1.00  0.00     0.014 C 
ATOM     14  C   UNL     1       4.785  -9.306 -46.351  1.00  0.00     0.018 C 
ATOM     15  C   UNL     1       6.658  -7.910 -45.469  1.00  0.00     0.018 C 
ATOM     16  C   UNL     1       7.023  -9.297 -47.508  1.00  0.00     0.018 C 
ENDBRANCH   9  13
BRANCH  12  17
ATOM     17  C   UNL     1       7.995 -12.342 -42.127  1.00  0.00     0.088 A 
ATOM     18  C   UNL     1       9.222 -12.958 -42.001  1.00  0.00     0.050 A 
ATOM     19  N   UNL     1       7.156 -12.159 -41.087  1.00  0.00    -0.212 NA
ATOM     20  C   UNL     1       9.534 -13.394 -40.737  1.00  0.00     0.117 A 
ATOM     21  C   UNL     1       7.566 -12.605 -39.900  1.00  0.00     0.220 A 
ATOM     22  N   UNL     1       8.721 -13.240 -39.679  1.00  0.00    -0.222 NA
BRANCH  21  23
ATOM     23  N   UNL     1       6.711 -12.442 -38.829  1.00  0.00    -0.368 N 
ATOM     24  H   UNL     1       5.761 -12.341 -39.166  1.00  0.00     0.159 HD
ATOM     25  H   UNL     1       6.882 -13.163 -38.139  1.00  0.00     0.159 HD
ENDBRANCH  21  23
ENDBRANCH  12  17
ENDBRANCH   1   8
BRANCH   5  26
ATOM     26  N   UNL     1       5.844 -17.168 -44.236  1.00  0.00    -0.276 N 
ATOM     27  H   UNL     1       5.290 -17.632 -44.959  1.00  0.00     0.180 HD
BRANCH  26  28
ATOM     28  S   UNL     1       6.333 -18.295 -43.063  1.00  0.00     0.267 S 
ATOM     29  O   UNL     1       7.096 -17.562 -42.076  1.00  0.00    -0.201 OA
ATOM     30  O   UNL     1       6.922 -19.423 -43.751  1.00  0.00    -0.201 OA
BRANCH  28  31
ATOM     31  C   UNL     1       4.832 -18.785 -42.304  1.00  0.00     0.158 A 
ATOM     32  C   UNL     1       4.471 -20.119 -42.195  1.00  0.00     0.146 A 
ATOM     33  C   UNL     1       3.991 -17.802 -41.796  1.00  0.00     0.146 A 
ATOM     34  C   UNL     1       3.265 -20.472 -41.587  1.00  0.00     0.041 A 
ATOM     35  C   UNL     1       2.782 -18.142 -41.188  1.00  0.00     0.041 A 
ATOM     36  C   UNL     1       2.417 -19.483 -41.083  1.00  0.00     0.006 A 
ATOM     37  F   UNL     1       5.243 -21.104 -42.668  1.00  0.00    -0.205 F 
ATOM     38  F   UNL     1       4.305 -16.503 -41.912  1.00  0.00    -0.205 F 
ENDBRANCH  28  31
ENDBRANCH  26  28
ENDBRANCH   5  26
TORSDOF 7
ENDMDL
MODEL 5
REMARK minimizedAffinity -8.50009441
REMARK minimizedRMSD -1
REMARK SMILES CC(C)(C)c1nc(-c2cccc(NS(=O)(=O)c3c(F)cccc3F)c2F)c(-c2ccnc(N)n2)s1
REMARK SMILES IDX 8 1 9 2 10 3 11 4 12 5 25 6 26 7 7 8 5 9 6 10 35 11 27 12
REMARK SMILES IDX 2 13 1 14 3 15 4 16 28 17 29 18 34 19 30 20 32 21 31 22
REMARK SMILES IDX 33 23 13 26 14 28 15 29 16 30 17 31 18 32 23 33 20 34 22 35
REMARK SMILES IDX 21 36 19 37 24 38
REMARK H PARENT 33 24 33 25 13 27
ROOT
ATOM      1  C   UNL     1       6.489 -19.492 -41.479  1.00  0.00     0.040 A 
ATOM      2  C   UNL     1       6.997 -18.988 -40.274  1.00  0.00     0.013 A 
ATOM      3  C   UNL     1       6.165 -18.291 -39.392  1.00  0.00     0.003 A 
ATOM      4  C   UNL     1       4.814 -18.108 -39.698  1.00  0.00     0.030 A 
ATOM      5  C   UNL     1       4.291 -18.634 -40.875  1.00  0.00     0.085 A 
ATOM      6  C   UNL     1       5.132 -19.315 -41.763  1.00  0.00     0.156 A 
ATOM      7  F   UNL     1       4.599 -19.827 -42.884  1.00  0.00    -0.204 F 
ENDROOT
BRANCH   1   8
ATOM      8  C   UNL     1       7.371 -20.224 -42.373  1.00  0.00     0.094 A 
ATOM      9  C   UNL     1       8.687 -21.944 -42.880  1.00  0.00     0.099 A 
ATOM     10  N   UNL     1       7.959 -21.396 -41.929  1.00  0.00    -0.240 NA
ATOM     11  S   UNL     1       8.743 -21.037 -44.346  1.00  0.00    -0.116 S 
ATOM     12  C   UNL     1       7.717 -19.837 -43.660  1.00  0.00     0.081 A 
BRANCH   9  13
ATOM     13  C   UNL     1       9.456 -23.256 -42.717  1.00  0.00     0.014 C 
ATOM     14  C   UNL     1      10.501 -23.397 -43.838  1.00  0.00     0.018 C 
ATOM     15  C   UNL     1      10.201 -23.259 -41.363  1.00  0.00     0.018 C 
ATOM     16  C   UNL     1       8.506 -24.469 -42.733  1.00  0.00     0.018 C 
ENDBRANCH   9  13
BRANCH  12  17
ATOM     17  C   UNL     1       7.389 -18.646 -44.442  1.00  0.00     0.088 A 
ATOM     18  C   UNL     1       8.090 -17.467 -44.300  1.00  0.00     0.050 A 
ATOM     19  N   UNL     1       6.356 -18.786 -45.297  1.00  0.00    -0.212 NA
ATOM     20  C   UNL     1       7.655 -16.426 -45.081  1.00  0.00     0.117 A 
ATOM     21  C   UNL     1       6.028 -17.716 -46.022  1.00  0.00     0.220 A 
ATOM     22  N   UNL     1       6.623 -16.523 -45.937  1.00  0.00    -0.222 NA
BRANCH  21  23
ATOM     23  N   UNL     1       4.961 -17.839 -46.889  1.00  0.00    -0.368 N 
ATOM     24  H   UNL     1       4.363 -18.597 -46.586  1.00  0.00     0.159 HD
ATOM     25  H   UNL     1       4.527 -16.935 -47.030  1.00  0.00     0.159 HD
ENDBRANCH  21  23
ENDBRANCH  12  17
ENDBRANCH   1   8
BRANCH   5  26
ATOM     26  N   UNL     1       2.898 -18.518 -41.189  1.00  0.00    -0.276 N 
ATOM     27  H   UNL     1       2.673 -18.464 -42.185  1.00  0.00     0.180 HD
BRANCH  26  28
ATOM     28  S   UNL     1       1.806 -19.553 -40.401  1.00  0.00     0.267 S 
ATOM     29  O   UNL     1       1.526 -18.956 -39.113  1.00  0.00    -0.201 OA
ATOM     30  O   UNL     1       2.332 -20.898 -40.484  1.00  0.00    -0.201 OA
BRANCH  28  31
ATOM     31  C   UNL     1       0.347 -19.430 -41.361  1.00  0.00     0.158 A 
ATOM     32  C   UNL     1      -0.488 -20.518 -41.562  1.00  0.00     0.146 A 
ATOM     33  C   UNL     1       0.024 -18.203 -41.928  1.00  0.00     0.146 A 
ATOM     34  C   UNL     1      -1.642 -20.384 -42.338  1.00  0.00     0.041 A 
ATOM     35  C   UNL     1      -1.124 -18.056 -42.706  1.00  0.00     0.041 A 
ATOM     36  C   UNL     1      -1.962 -19.152 -42.912  1.00  0.00     0.006 A 
ATOM     37  F   UNL     1      -0.224 -21.722 -41.041  1.00  0.00    -0.205 F 
ATOM     38  F   UNL     1       0.829 -17.141 -41.770  1.00  0.00    -0.205 F 
ENDBRANCH  28  31
ENDBRANCH  26  28
ENDBRANCH   5  26
TORSDOF 7
ENDMDL
MODEL 6
REMARK minimizedAffinity -8.45063305
REMARK minimizedRMSD -1
REMARK SMILES CC(C)(C)c1nc(-c2cccc(NS(=O)(=O)c3c(F)cccc3F)c2F)c(-c2ccnc(N)n2)s1
REMARK SMILES IDX 8 1 9 2 10 3 11 4 12 5 25 6 26 7 7 8 5 9 6 10 35 11 27 12
REMARK SMILES IDX 2 13 1 14 3 15 4 16 28 17 29 18 34 19 30 20 32 21 31 22
REMARK SMILES IDX 33 23 13 26 14 28 15 29 16 30 17 31 18 32 23 33 20 34 22 35
REMARK SMILES IDX 21 36 19 37 24 38
REMARK H PARENT 33 24 33 25 13 27
ROOT
ATOM      1  C   UNL     1       6.871 -13.774 -44.956  1.00  0.00     0.040 A 
ATOM      2  C   UNL     1       5.779 -14.504 -44.468  1.00  0.00     0.013 A 
ATOM      3  C   UNL     1       5.707 -15.886 -44.668  1.00  0.00     0.003 A 
ATOM      4  C   UNL     1       6.733 -16.553 -45.340  1.00  0.00     0.030 A 
ATOM      5  C   UNL     1       7.840 -15.844 -45.798  1.00  0.00     0.085 A 
ATOM      6  C   UNL     1       7.898 -14.458 -45.612  1.00  0.00     0.156 A 
ATOM      7  F   UNL     1       8.983 -13.799 -46.049  1.00  0.00    -0.204 F 
ENDROOT
BRANCH   1   8
ATOM      8  C   UNL     1       6.929 -12.340 -44.725  1.00  0.00     0.094 A 
ATOM      9  C   UNL     1       6.635 -10.225 -45.348  1.00  0.00     0.099 A 
ATOM     10  N   UNL     1       6.563 -11.478 -45.745  1.00  0.00    -0.240 NA
ATOM     11  S   UNL     1       7.204 -10.021 -43.732  1.00  0.00    -0.116 S 
ATOM     12  C   UNL     1       7.355 -11.727 -43.556  1.00  0.00     0.081 A 
BRANCH   9  13
ATOM     13  C   UNL     1       6.282  -9.028 -46.232  1.00  0.00     0.014 C 
ATOM     14  C   UNL     1       7.035  -9.122 -47.570  1.00  0.00     0.018 C 
ATOM     15  C   UNL     1       4.766  -9.031 -46.533  1.00  0.00     0.018 C 
ATOM     16  C   UNL     1       6.619  -7.696 -45.535  1.00  0.00     0.018 C 
ENDBRANCH   9  13
BRANCH  12  17
ATOM     17  C   UNL     1       7.897 -12.270 -42.310  1.00  0.00     0.088 A 
ATOM     18  C   UNL     1       9.121 -12.901 -42.264  1.00  0.00     0.050 A 
ATOM     19  N   UNL     1       7.110 -12.115 -41.226  1.00  0.00    -0.212 NA
ATOM     20  C   UNL     1       9.489 -13.383 -41.032  1.00  0.00     0.117 A 
ATOM     21  C   UNL     1       7.571 -12.605 -40.075  1.00  0.00     0.220 A 
ATOM     22  N   UNL     1       8.729 -13.257 -39.931  1.00  0.00    -0.222 NA
BRANCH  21  23
ATOM     23  N   UNL     1       6.770 -12.470 -38.960  1.00  0.00    -0.368 N 
ATOM     24  H   UNL     1       5.807 -12.350 -39.247  1.00  0.00     0.159 HD
ATOM     25  H   UNL     1       6.966 -13.216 -38.303  1.00  0.00     0.159 HD
ENDBRANCH  21  23
ENDBRANCH  12  17
ENDBRANCH   1   8
BRANCH   5  26
ATOM     26  N   UNL     1       8.938 -16.505 -46.436  1.00  0.00    -0.276 N 
ATOM     27  H   UNL     1       9.394 -15.981 -47.186  1.00  0.00     0.180 HD
BRANCH  26  28
ATOM     28  S   UNL     1      10.105 -17.255 -45.457  1.00  0.00     0.267 S 
ATOM     29  O   UNL     1      10.428 -18.516 -46.088  1.00  0.00    -0.201 OA
ATOM     30  O   UNL     1       9.624 -17.224 -44.092  1.00  0.00    -0.201 OA
BRANCH  28  31
ATOM     31  C   UNL     1      11.509 -16.218 -45.611  1.00  0.00     0.158 A 
ATOM     32  C   UNL     1      12.189 -15.742 -44.502  1.00  0.00     0.146 A 
ATOM     33  C   UNL     1      11.946 -15.875 -46.885  1.00  0.00     0.146 A 
ATOM     34  C   UNL     1      13.302 -14.914 -44.663  1.00  0.00     0.041 A 
ATOM     35  C   UNL     1      13.055 -15.048 -47.060  1.00  0.00     0.041 A 
ATOM     36  C   UNL     1      13.737 -14.565 -45.944  1.00  0.00     0.006 A 
ATOM     37  F   UNL     1      11.811 -16.040 -43.254  1.00  0.00    -0.205 F 
ATOM     38  F   UNL     1      11.289 -16.302 -47.974  1.00  0.00    -0.205 F 
ENDBRANCH  28  31
ENDBRANCH  26  28
ENDBRANCH   5  26
TORSDOF 7
ENDMDL
MODEL 7
REMARK minimizedAffinity -8.44233036
REMARK minimizedRMSD -1
REMARK SMILES CC(C)(C)c1nc(-c2cccc(NS(=O)(=O)c3c(F)cccc3F)c2F)c(-c2ccnc(N)n2)s1
REMARK SMILES IDX 8 1 9 2 10 3 11 4 12 5 25 6 26 7 7 8 5 9 6 10 35 11 27 12
REMARK SMILES IDX 2 13 1 14 3 15 4 16 28 17 29 18 34 19 30 20 32 21 31 22
REMARK SMILES IDX 33 23 13 26 14 28 15 29 16 30 17 31 18 32 23 33 20 34 22 35
REMARK SMILES IDX 21 36 19 37 24 38
REMARK H PARENT 33 24 33 25 13 27
ROOT
ATOM      1  C   UNL     1       7.905 -12.378 -42.137  1.00  0.00     0.040 A 
ATOM      2  C   UNL     1       7.296 -12.362 -40.875  1.00  0.00     0.013 A 
ATOM      3  C   UNL     1       7.902 -13.001 -39.789  1.00  0.00     0.003 A 
ATOM      4  C   UNL     1       9.131 -13.645 -39.950  1.00  0.00     0.030 A 
ATOM      5  C   UNL     1       9.763 -13.637 -41.190  1.00  0.00     0.085 A 
ATOM      6  C   UNL     1       9.143 -13.012 -42.278  1.00  0.00     0.156 A 
ATOM      7  F   UNL     1       9.780 -13.004 -43.460  1.00  0.00    -0.204 F 
ENDROOT
BRANCH   1   8
ATOM      8  C   UNL     1       7.261 -11.696 -43.248  1.00  0.00     0.094 A 
ATOM      9  C   UNL     1       6.539  -9.872 -44.296  1.00  0.00     0.099 A 
ATOM     10  N   UNL     1       7.099 -10.322 -43.192  1.00  0.00    -0.240 NA
ATOM     11  S   UNL     1       6.129 -11.098 -45.438  1.00  0.00    -0.116 S 
ATOM     12  C   UNL     1       6.751 -12.308 -44.383  1.00  0.00     0.081 A 
BRANCH   9  13
ATOM     13  C   UNL     1       6.236  -8.396 -44.557  1.00  0.00     0.014 C 
ATOM     14  C   UNL     1       5.606  -7.758 -43.307  1.00  0.00     0.018 C 
ATOM     15  C   UNL     1       7.548  -7.642 -44.872  1.00  0.00     0.018 C 
ATOM     16  C   UNL     1       5.294  -8.221 -45.764  1.00  0.00     0.018 C 
ENDBRANCH   9  13
BRANCH  12  17
ATOM     17  C   UNL     1       6.645 -13.714 -44.770  1.00  0.00     0.088 A 
ATOM     18  C   UNL     1       5.665 -14.538 -44.258  1.00  0.00     0.050 A 
ATOM     19  N   UNL     1       7.575 -14.139 -45.650  1.00  0.00    -0.212 NA
ATOM     20  C   UNL     1       5.704 -15.839 -44.693  1.00  0.00     0.117 A 
ATOM     21  C   UNL     1       7.510 -15.419 -46.019  1.00  0.00     0.220 A 
ATOM     22  N   UNL     1       6.620 -16.304 -45.560  1.00  0.00    -0.222 NA
BRANCH  21  23
ATOM     23  N   UNL     1       8.465 -15.874 -46.905  1.00  0.00    -0.368 N 
ATOM     24  H   UNL     1       9.281 -15.276 -46.862  1.00  0.00     0.159 HD
ATOM     25  H   UNL     1       8.613 -16.867 -46.772  1.00  0.00     0.159 HD
ENDBRANCH  21  23
ENDBRANCH  12  17
ENDBRANCH   1   8
BRANCH   5  26
ATOM     26  N   UNL     1      11.051 -14.234 -41.374  1.00  0.00    -0.276 N 
ATOM     27  H   UNL     1      11.714 -14.103 -40.606  1.00  0.00     0.180 HD
BRANCH  26  28
ATOM     28  S   UNL     1      11.124 -15.834 -41.939  1.00  0.00     0.267 S 
ATOM     29  O   UNL     1       9.756 -16.281 -42.094  1.00  0.00    -0.201 OA
ATOM     30  O   UNL     1      12.038 -16.563 -41.087  1.00  0.00    -0.201 OA
BRANCH  28  31
ATOM     31  C   UNL     1      11.807 -15.680 -43.544  1.00  0.00     0.158 A 
ATOM     32  C   UNL     1      11.305 -16.392 -44.622  1.00  0.00     0.146 A 
ATOM     33  C   UNL     1      12.879 -14.815 -43.732  1.00  0.00     0.146 A 
ATOM     34  C   UNL     1      11.879 -16.248 -45.887  1.00  0.00     0.041 A 
ATOM     35  C   UNL     1      13.461 -14.663 -44.989  1.00  0.00     0.041 A 
ATOM     36  C   UNL     1      12.959 -15.383 -46.073  1.00  0.00     0.006 A 
ATOM     37  F   UNL     1      10.277 -17.239 -44.497  1.00  0.00    -0.205 F 
ATOM     38  F   UNL     1      13.400 -14.135 -42.699  1.00  0.00    -0.205 F 
ENDBRANCH  28  31
ENDBRANCH  26  28
ENDBRANCH   5  26
TORSDOF 7
ENDMDL
MODEL 8
REMARK minimizedAffinity -8.44114017
REMARK minimizedRMSD -1
REMARK SMILES CC(C)(C)c1nc(-c2cccc(NS(=O)(=O)c3c(F)cccc3F)c2F)c(-c2ccnc(N)n2)s1
REMARK SMILES IDX 8 1 9 2 10 3 11 4 12 5 25 6 26 7 7 8 5 9 6 10 35 11 27 12
REMARK SMILES IDX 2 13 1 14 3 15 4 16 28 17 29 18 34 19 30 20 32 21 31 22
REMARK SMILES IDX 33 23 13 26 14 28 15 29 16 30 17 31 18 32 23 33 20 34 22 35
REMARK SMILES IDX 21 36 19 37 24 38
REMARK H PARENT 33 24 33 25 13 27
ROOT
ATOM      1  C   UNL     1       1.133 -12.906 -45.289  1.00  0.00     0.040 A 
ATOM      2  C   UNL     1       0.866 -12.952 -46.663  1.00  0.00     0.013 A 
ATOM      3  C   UNL     1      -0.250 -12.294 -47.189  1.00  0.00     0.003 A 
ATOM      4  C   UNL     1      -1.099 -11.570 -46.348  1.00  0.00     0.030 A 
ATOM      5  C   UNL     1      -0.825 -11.489 -44.986  1.00  0.00     0.085 A 
ATOM      6  C   UNL     1       0.284 -12.165 -44.463  1.00  0.00     0.156 A 
ATOM      7  F   UNL     1       0.536 -12.058 -43.148  1.00  0.00    -0.204 F 
ENDROOT
BRANCH   1   8
ATOM      8  C   UNL     1       2.307 -13.588 -44.768  1.00  0.00     0.094 A 
ATOM      9  C   UNL     1       4.499 -13.777 -44.439  1.00  0.00     0.099 A 
ATOM     10  N   UNL     1       3.561 -13.057 -45.019  1.00  0.00    -0.240 NA
ATOM     11  S   UNL     1       3.915 -15.168 -43.604  1.00  0.00    -0.116 S 
ATOM     12  C   UNL     1       2.299 -14.771 -44.045  1.00  0.00     0.081 A 
BRANCH   9  13
ATOM     13  C   UNL     1       5.991 -13.450 -44.510  1.00  0.00     0.014 C 
ATOM     14  C   UNL     1       6.723 -14.508 -45.355  1.00  0.00     0.018 C 
ATOM     15  C   UNL     1       6.192 -12.074 -45.186  1.00  0.00     0.018 C 
ATOM     16  C   UNL     1       6.618 -13.378 -43.104  1.00  0.00     0.018 C 
ENDBRANCH   9  13
BRANCH  12  17
ATOM     17  C   UNL     1       1.213 -15.672 -43.660  1.00  0.00     0.088 A 
ATOM     18  C   UNL     1       0.031 -15.731 -44.368  1.00  0.00     0.050 A 
ATOM     19  N   UNL     1       1.451 -16.424 -42.566  1.00  0.00    -0.212 NA
ATOM     20  C   UNL     1      -0.907 -16.604 -43.875  1.00  0.00     0.117 A 
ATOM     21  C   UNL     1       0.478 -17.252 -42.184  1.00  0.00     0.220 A 
ATOM     22  N   UNL     1      -0.712 -17.362 -42.784  1.00  0.00    -0.222 NA
BRANCH  21  23
ATOM     23  N   UNL     1       0.699 -18.016 -41.057  1.00  0.00    -0.368 N 
ATOM     24  H   UNL     1       1.408 -17.576 -40.483  1.00  0.00     0.159 HD
ATOM     25  H   UNL     1      -0.184 -18.237 -40.612  1.00  0.00     0.159 HD
ENDBRANCH  21  23
ENDBRANCH  12  17
ENDBRANCH   1   8
BRANCH   5  26
ATOM     26  N   UNL     1      -1.639 -10.706 -44.106  1.00  0.00    -0.276 N 
ATOM     27  H   UNL     1      -1.471 -10.845 -43.107  1.00  0.00     0.180 HD
BRANCH  26  28
ATOM     28  S   UNL     1      -1.823  -9.051 -44.440  1.00  0.00     0.267 S 
ATOM     29  O   UNL     1      -1.860  -8.920 -45.881  1.00  0.00    -0.201 OA
ATOM     30  O   UNL     1      -0.835  -8.330 -43.666  1.00  0.00    -0.201 OA
BRANCH  28  31
ATOM     31  C   UNL     1      -3.427  -8.680 -43.842  1.00  0.00     0.158 A 
ATOM     32  C   UNL     1      -4.454  -9.610 -43.883  1.00  0.00     0.146 A 
ATOM     33  C   UNL     1      -3.664  -7.418 -43.309  1.00  0.00     0.146 A 
ATOM     34  C   UNL     1      -5.722  -9.277 -43.401  1.00  0.00     0.041 A 
ATOM     35  C   UNL     1      -4.925  -7.073 -42.826  1.00  0.00     0.041 A 
ATOM     36  C   UNL     1      -5.960  -8.007 -42.871  1.00  0.00     0.006 A 
ATOM     37  F   UNL     1      -4.282 -10.837 -44.386  1.00  0.00    -0.205 F 
ATOM     38  F   UNL     1      -2.694  -6.492 -43.282  1.00  0.00    -0.205 F 
ENDBRANCH  28  31
ENDBRANCH  26  28
ENDBRANCH   5  26
TORSDOF 7
ENDMDL
MODEL 9
REMARK minimizedAffinity -8.37414169
REMARK minimizedRMSD -1
REMARK SMILES CC(C)(C)c1nc(-c2cccc(NS(=O)(=O)c3c(F)cccc3F)c2F)c(-c2ccnc(N)n2)s1
REMARK SMILES IDX 8 1 9 2 10 3 11 4 12 5 25 6 26 7 7 8 5 9 6 10 35 11 27 12
REMARK SMILES IDX 2 13 1 14 3 15 4 16 28 17 29 18 34 19 30 20 32 21 31 22
REMARK SMILES IDX 33 23 13 26 14 28 15 29 16 30 17 31 18 32 23 33 20 34 22 35
REMARK SMILES IDX 21 36 19 37 24 38
REMARK H PARENT 33 24 33 25 13 27
ROOT
ATOM      1  C   UNL     1       7.334 -13.818 -44.929  1.00  0.00     0.040 A 
ATOM      2  C   UNL     1       6.213 -14.643 -44.767  1.00  0.00     0.013 A 
ATOM      3  C   UNL     1       6.310 -16.019 -44.995  1.00  0.00     0.003 A 
ATOM      4  C   UNL     1       7.530 -16.585 -45.369  1.00  0.00     0.030 A 
ATOM      5  C   UNL     1       8.659 -15.781 -45.500  1.00  0.00     0.085 A 
ATOM      6  C   UNL     1       8.552 -14.401 -45.288  1.00  0.00     0.156 A 
ATOM      7  F   UNL     1       9.658 -13.649 -45.404  1.00  0.00    -0.204 F 
ENDROOT
BRANCH   1   8
ATOM      8  C   UNL     1       7.211 -12.392 -44.674  1.00  0.00     0.094 A 
ATOM      9  C   UNL     1       6.736 -10.308 -45.290  1.00  0.00     0.099 A 
ATOM     10  N   UNL     1       6.838 -11.552 -45.710  1.00  0.00    -0.240 NA
ATOM     11  S   UNL     1       7.141 -10.081 -43.629  1.00  0.00    -0.116 S 
ATOM     12  C   UNL     1       7.467 -11.763 -43.464  1.00  0.00     0.081 A 
BRANCH   9  13
ATOM     13  C   UNL     1       6.327  -9.137 -46.185  1.00  0.00     0.014 C 
ATOM     14  C   UNL     1       4.805  -9.157 -46.415  1.00  0.00     0.018 C 
ATOM     15  C   UNL     1       6.690  -7.802 -45.496  1.00  0.00     0.018 C 
ATOM     16  C   UNL     1       7.061  -9.181 -47.539  1.00  0.00     0.018 C 
ENDBRANCH   9  13
BRANCH  12  17
ATOM     17  C   UNL     1       7.959 -12.272 -42.184  1.00  0.00     0.088 A 
ATOM     18  C   UNL     1       9.183 -12.896 -42.073  1.00  0.00     0.050 A 
ATOM     19  N   UNL     1       7.128 -12.093 -41.137  1.00  0.00    -0.212 NA
ATOM     20  C   UNL     1       9.502 -13.345 -40.815  1.00  0.00     0.117 A 
ATOM     21  C   UNL     1       7.544 -12.552 -39.956  1.00  0.00     0.220 A 
ATOM     22  N   UNL     1       8.697 -13.195 -39.749  1.00  0.00    -0.222 NA
BRANCH  21  23
ATOM     23  N   UNL     1       6.698 -12.392 -38.878  1.00  0.00    -0.368 N 
ATOM     24  H   UNL     1       5.747 -12.283 -39.207  1.00  0.00     0.159 HD
ATOM     25  H   UNL     1       6.870 -13.120 -38.195  1.00  0.00     0.159 HD
ENDBRANCH  21  23
ENDBRANCH  12  17
ENDBRANCH   1   8
BRANCH   5  26
ATOM     26  N   UNL     1       9.938 -16.337 -45.822  1.00  0.00    -0.276 N 
ATOM     27  H   UNL     1      10.642 -15.669 -46.144  1.00  0.00     0.180 HD
BRANCH  26  28
ATOM     28  S   UNL     1      10.635 -17.436 -44.731  1.00  0.00     0.267 S 
ATOM     29  O   UNL     1      11.652 -18.160 -45.464  1.00  0.00    -0.201 OA
ATOM     30  O   UNL     1       9.562 -18.149 -44.073  1.00  0.00    -0.201 OA
BRANCH  28  31
ATOM     31  C   UNL     1      11.458 -16.410 -43.573  1.00  0.00     0.158 A 
ATOM     32  C   UNL     1      11.387 -16.647 -42.209  1.00  0.00     0.146 A 
ATOM     33  C   UNL     1      12.204 -15.337 -44.046  1.00  0.00     0.146 A 
ATOM     34  C   UNL     1      12.052 -15.806 -41.315  1.00  0.00     0.041 A 
ATOM     35  C   UNL     1      12.871 -14.488 -43.163  1.00  0.00     0.041 A 
ATOM     36  C   UNL     1      12.796 -14.724 -41.791  1.00  0.00     0.006 A 
ATOM     37  F   UNL     1      10.683 -17.665 -41.700  1.00  0.00    -0.205 F 
ATOM     38  F   UNL     1      12.267 -15.071 -45.359  1.00  0.00    -0.205 F 
ENDBRANCH  28  31
ENDBRANCH  26  28
ENDBRANCH   5  26
TORSDOF 7
ENDMDL
MODEL 10
REMARK minimizedAffinity -8.34668732
REMARK minimizedRMSD -1
REMARK SMILES CC(C)(C)c1nc(-c2cccc(NS(=O)(=O)c3c(F)cccc3F)c2F)c(-c2ccnc(N)n2)s1
REMARK SMILES IDX 8 1 9 2 10 3 11 4 12 5 25 6 26 7 7 8 5 9 6 10 35 11 27 12
REMARK SMILES IDX 2 13 1 14 3 15 4 16 28 17 29 18 34 19 30 20 32 21 31 22
REMARK SMILES IDX 33 23 13 26 14 28 15 29 16 30 17 31 18 32 23 33 20 34 22 35
REMARK SMILES IDX 21 36 19 37 24 38
REMARK H PARENT 33 24 33 25 13 27
ROOT
ATOM      1  C   UNL     1       2.472  -7.665 -45.715  1.00  0.00     0.040 A 
ATOM      2  C   UNL     1       2.703  -7.236 -47.029  1.00  0.00     0.013 A 
ATOM      3  C   UNL     1       4.010  -7.086 -47.503  1.00  0.00     0.003 A 
ATOM      4  C   UNL     1       5.096  -7.380 -46.676  1.00  0.00     0.030 A 
ATOM      5  C   UNL     1       4.878  -7.841 -45.381  1.00  0.00     0.085 A 
ATOM      6  C   UNL     1       3.568  -7.972 -44.905  1.00  0.00     0.156 A 
ATOM      7  F   UNL     1       3.384  -8.433 -43.657  1.00  0.00    -0.204 F 
ENDROOT
BRANCH   1   8
ATOM      8  C   UNL     1       1.104  -7.825 -45.249  1.00  0.00     0.094 A 
ATOM      9  C   UNL     1      -0.918  -7.044 -44.750  1.00  0.00     0.099 A 
ATOM     10  N   UNL     1       0.293  -6.708 -45.145  1.00  0.00    -0.240 NA
ATOM     11  S   UNL     1      -1.122  -8.726 -44.433  1.00  0.00    -0.116 S 
ATOM     12  C   UNL     1       0.519  -9.021 -44.859  1.00  0.00     0.081 A 
BRANCH   9  13
ATOM     13  C   UNL     1      -2.058  -6.044 -44.552  1.00  0.00     0.014 C 
ATOM     14  C   UNL     1      -2.823  -5.849 -45.873  1.00  0.00     0.018 C 
ATOM     15  C   UNL     1      -3.051  -6.587 -43.499  1.00  0.00     0.018 C 
ATOM     16  C   UNL     1      -1.533  -4.687 -44.046  1.00  0.00     0.018 C 
ENDBRANCH   9  13
BRANCH  12  17
ATOM     17  C   UNL     1       1.055 -10.377 -44.739  1.00  0.00     0.088 A 
ATOM     18  C   UNL     1       1.971 -10.878 -45.638  1.00  0.00     0.050 A 
ATOM     19  N   UNL     1       0.583 -11.091 -43.697  1.00  0.00    -0.212 NA
ATOM     20  C   UNL     1       2.367 -12.174 -45.415  1.00  0.00     0.117 A 
ATOM     21  C   UNL     1       1.047 -12.334 -43.562  1.00  0.00     0.220 A 
ATOM     22  N   UNL     1       1.912 -12.921 -44.395  1.00  0.00    -0.222 NA
BRANCH  21  23
ATOM     23  N   UNL     1       0.560 -13.084 -42.512  1.00  0.00    -0.368 N 
ATOM     24  H   UNL     1      -0.337 -12.716 -42.219  1.00  0.00     0.159 HD
ATOM     25  H   UNL     1       0.601 -14.069 -42.744  1.00  0.00     0.159 HD
ENDBRANCH  21  23
ENDBRANCH  12  17
ENDBRANCH   1   8
BRANCH   5  26
ATOM     26  N   UNL     1       5.967  -8.210 -44.527  1.00  0.00    -0.276 N 
ATOM     27  H   UNL     1       5.711  -8.472 -43.572  1.00  0.00     0.180 HD
BRANCH  26  28
ATOM     28  S   UNL     1       7.134  -9.285 -45.132  1.00  0.00     0.267 S 
ATOM     29  O   UNL     1       8.359  -8.528 -45.276  1.00  0.00    -0.201 OA
ATOM     30  O   UNL     1       6.560  -9.969 -46.270  1.00  0.00    -0.201 OA
BRANCH  28  31
ATOM     31  C   UNL     1       7.375 -10.421 -43.821  1.00  0.00     0.158 A 
ATOM     32  C   UNL     1       7.492 -11.784 -44.048  1.00  0.00     0.146 A 
ATOM     33  C   UNL     1       7.455  -9.933 -42.522  1.00  0.00     0.146 A 
ATOM     34  C   UNL     1       7.679 -12.661 -42.978  1.00  0.00     0.041 A 
ATOM     35  C   UNL     1       7.640 -10.799 -41.444  1.00  0.00     0.041 A 
ATOM     36  C   UNL     1       7.753 -12.169 -41.673  1.00  0.00     0.006 A 
ATOM     37  F   UNL     1       7.421 -12.307 -45.278  1.00  0.00    -0.205 F 
ATOM     38  F   UNL     1       7.319  -8.622 -42.272  1.00  0.00    -0.205 F 
ENDBRANCH  28  31
ENDBRANCH  26  28
ENDBRANCH   5  26
TORSDOF 7
ENDMDL
MODEL 11
REMARK minimizedAffinity -8.34378147
REMARK minimizedRMSD -1
REMARK SMILES CC(C)(C)c1nc(-c2cccc(NS(=O)(=O)c3c(F)cccc3F)c2F)c(-c2ccnc(N)n2)s1
REMARK SMILES IDX 8 1 9 2 10 3 11 4 12 5 25 6 26 7 7 8 5 9 6 10 35 11 27 12
REMARK SMILES IDX 2 13 1 14 3 15 4 16 28 17 29 18 34 19 30 20 32 21 31 22
REMARK SMILES IDX 33 23 13 26 14 28 15 29 16 30 17 31 18 32 23 33 20 34 22 35
REMARK SMILES IDX 21 36 19 37 24 38
REMARK H PARENT 33 24 33 25 13 27
ROOT
ATOM      1  C   UNL     1       0.292 -12.368 -45.238  1.00  0.00     0.040 A 
ATOM      2  C   UNL     1       0.136 -12.892 -46.528  1.00  0.00     0.013 A 
ATOM      3  C   UNL     1       0.668 -14.144 -46.852  1.00  0.00     0.003 A 
ATOM      4  C   UNL     1       1.344 -14.891 -45.886  1.00  0.00     0.030 A 
ATOM      5  C   UNL     1       1.475 -14.397 -44.591  1.00  0.00     0.085 A 
ATOM      6  C   UNL     1       0.956 -13.135 -44.277  1.00  0.00     0.156 A 
ATOM      7  F   UNL     1       1.081 -12.688 -43.017  1.00  0.00    -0.204 F 
ENDROOT
BRANCH   1   8
ATOM      8  C   UNL     1      -0.281 -11.070 -44.922  1.00  0.00     0.094 A 
ATOM      9  C   UNL     1      -1.998  -9.704 -44.552  1.00  0.00     0.099 A 
ATOM     10  N   UNL     1      -1.658 -10.930 -44.897  1.00  0.00    -0.240 NA
ATOM     11  S   UNL     1      -0.664  -8.642 -44.294  1.00  0.00    -0.116 S 
ATOM     12  C   UNL     1       0.438  -9.913 -44.662  1.00  0.00     0.081 A 
BRANCH   9  13
ATOM     13  C   UNL     1      -3.444  -9.227 -44.416  1.00  0.00     0.014 C 
ATOM     14  C   UNL     1      -4.355 -10.408 -44.041  1.00  0.00     0.018 C 
ATOM     15  C   UNL     1      -3.541  -8.170 -43.292  1.00  0.00     0.018 C 
ATOM     16  C   UNL     1      -3.945  -8.573 -45.719  1.00  0.00     0.018 C 
ENDBRANCH   9  13
BRANCH  12  17
ATOM     17  C   UNL     1       1.873  -9.629 -44.681  1.00  0.00     0.088 A 
ATOM     18  C   UNL     1       2.714 -10.203 -45.611  1.00  0.00     0.050 A 
ATOM     19  N   UNL     1       2.304  -8.782 -43.726  1.00  0.00    -0.212 NA
ATOM     20  C   UNL     1       4.039  -9.864 -45.493  1.00  0.00     0.117 A 
ATOM     21  C   UNL     1       3.609  -8.507 -43.712  1.00  0.00     0.220 A 
ATOM     22  N   UNL     1       4.509  -9.032 -44.549  1.00  0.00    -0.222 NA
BRANCH  21  23
ATOM     23  N   UNL     1       4.069  -7.655 -42.729  1.00  0.00    -0.368 N 
ATOM     24  H   UNL     1       3.421  -7.653 -41.951  1.00  0.00     0.159 HD
ATOM     25  H   UNL     1       5.038  -7.860 -42.522  1.00  0.00     0.159 HD
ENDBRANCH  21  23
ENDBRANCH  12  17
ENDBRANCH   1   8
BRANCH   5  26
ATOM     26  N   UNL     1       2.108 -15.163 -43.560  1.00  0.00    -0.276 N 
ATOM     27  H   UNL     1       1.688 -16.076 -43.366  1.00  0.00     0.180 HD
BRANCH  26  28
ATOM     28  S   UNL     1       3.801 -15.295 -43.580  1.00  0.00     0.267 S 
ATOM     29  O   UNL     1       4.320 -14.032 -43.100  1.00  0.00    -0.201 OA
ATOM     30  O   UNL     1       4.191 -15.799 -44.879  1.00  0.00    -0.201 OA
BRANCH  28  31
ATOM     31  C   UNL     1       4.141 -16.498 -42.353  1.00  0.00     0.158 A 
ATOM     32  C   UNL     1       3.143 -17.304 -41.826  1.00  0.00     0.146 A 
ATOM     33  C   UNL     1       5.449 -16.645 -41.908  1.00  0.00     0.146 A 
ATOM     34  C   UNL     1       3.451 -18.250 -40.846  1.00  0.00     0.041 A 
ATOM     35  C   UNL     1       5.769 -17.585 -40.929  1.00  0.00     0.041 A 
ATOM     36  C   UNL     1       4.765 -18.392 -40.395  1.00  0.00     0.006 A 
ATOM     37  F   UNL     1       1.868 -17.204 -42.217  1.00  0.00    -0.205 F 
ATOM     38  F   UNL     1       6.428 -15.859 -42.384  1.00  0.00    -0.205 F 
ENDBRANCH  28  31
ENDBRANCH  26  28
ENDBRANCH   5  26
TORSDOF 7
ENDMDL
MODEL 12
REMARK minimizedAffinity -8.32494354
REMARK minimizedRMSD -1
REMARK SMILES CC(C)(C)c1nc(-c2cccc(NS(=O)(=O)c3c(F)cccc3F)c2F)c(-c2ccnc(N)n2)s1
REMARK SMILES IDX 8 1 9 2 10 3 11 4 12 5 25 6 26 7 7 8 5 9 6 10 35 11 27 12
REMARK SMILES IDX 2 13 1 14 3 15 4 16 28 17 29 18 34 19 30 20 32 21 31 22
REMARK SMILES IDX 33 23 13 26 14 28 15 29 16 30 17 31 18 32 23 33 20 34 22 35
REMARK SMILES IDX 21 36 19 37 24 38
REMARK H PARENT 33 24 33 25 13 27
ROOT
ATOM      1  C   UNL     1       5.444 -13.647 -44.612  1.00  0.00     0.040 A 
ATOM      2  C   UNL     1       4.858 -14.303 -45.702  1.00  0.00     0.013 A 
ATOM      3  C   UNL     1       4.248 -15.550 -45.532  1.00  0.00     0.003 A 
ATOM      4  C   UNL     1       4.202 -16.143 -44.268  1.00  0.00     0.030 A 
ATOM      5  C   UNL     1       4.750 -15.485 -43.171  1.00  0.00     0.085 A 
ATOM      6  C   UNL     1       5.376 -14.245 -43.351  1.00  0.00     0.156 A 
ATOM      7  F   UNL     1       5.882 -13.623 -42.274  1.00  0.00    -0.204 F 
ENDROOT
BRANCH   1   8
ATOM      8  C   UNL     1       6.061 -12.346 -44.812  1.00  0.00     0.094 A 
ATOM      9  C   UNL     1       5.980 -10.136 -45.049  1.00  0.00     0.099 A 
ATOM     10  N   UNL     1       5.253 -11.226 -44.914  1.00  0.00    -0.240 NA
ATOM     11  S   UNL     1       7.680 -10.417 -45.113  1.00  0.00    -0.116 S 
ATOM     12  C   UNL     1       7.421 -12.110 -44.942  1.00  0.00     0.081 A 
BRANCH   9  13
ATOM     13  C   UNL     1       5.393  -8.729 -45.172  1.00  0.00     0.014 C 
ATOM     14  C   UNL     1       3.855  -8.797 -45.148  1.00  0.00     0.018 C 
ATOM     15  C   UNL     1       5.853  -7.865 -43.977  1.00  0.00     0.018 C 
ATOM     16  C   UNL     1       5.865  -8.034 -46.464  1.00  0.00     0.018 C 
ENDBRANCH   9  13
BRANCH  12  17
ATOM     17  C   UNL     1       8.570 -13.015 -44.982  1.00  0.00     0.088 A 
ATOM     18  C   UNL     1       9.564 -12.970 -44.028  1.00  0.00     0.050 A 
ATOM     19  N   UNL     1       8.585 -13.880 -46.016  1.00  0.00    -0.212 NA
ATOM     20  C   UNL     1      10.592 -13.862 -44.207  1.00  0.00     0.117 A 
ATOM     21  C   UNL     1       9.622 -14.715 -46.085  1.00  0.00     0.220 A 
ATOM     22  N   UNL     1      10.648 -14.732 -45.229  1.00  0.00    -0.222 NA
BRANCH  21  23
ATOM     23  N   UNL     1       9.660 -15.594 -47.148  1.00  0.00    -0.368 N 
ATOM     24  H   UNL     1       9.096 -15.234 -47.907  1.00  0.00     0.159 HD
ATOM     25  H   UNL     1      10.621 -15.835 -47.361  1.00  0.00     0.159 HD
ENDBRANCH  21  23
ENDBRANCH  12  17
ENDBRANCH   1   8
BRANCH   5  26
ATOM     26  N   UNL     1       4.666 -16.036 -41.852  1.00  0.00    -0.276 N 
ATOM     27  H   UNL     1       3.733 -16.331 -41.555  1.00  0.00     0.180 HD
BRANCH  26  28
ATOM     28  S   UNL     1       5.818 -17.194 -41.390  1.00  0.00     0.267 S 
ATOM     29  O   UNL     1       5.869 -17.174 -39.944  1.00  0.00    -0.201 OA
ATOM     30  O   UNL     1       7.017 -16.962 -42.166  1.00  0.00    -0.201 OA
BRANCH  28  31
ATOM     31  C   UNL     1       5.093 -18.717 -41.864  1.00  0.00     0.158 A 
ATOM     32  C   UNL     1       5.650 -19.513 -42.854  1.00  0.00     0.146 A 
ATOM     33  C   UNL     1       3.932 -19.131 -41.222  1.00  0.00     0.146 A 
ATOM     34  C   UNL     1       5.042 -20.719 -43.209  1.00  0.00     0.041 A 
ATOM     35  C   UNL     1       3.315 -20.332 -41.569  1.00  0.00     0.041 A 
ATOM     36  C   UNL     1       3.872 -21.130 -42.567  1.00  0.00     0.006 A 
ATOM     37  F   UNL     1       6.765 -19.162 -43.504  1.00  0.00    -0.205 F 
ATOM     38  F   UNL     1       3.359 -18.366 -40.280  1.00  0.00    -0.205 F 
ENDBRANCH  28  31
ENDBRANCH  26  28
ENDBRANCH   5  26
TORSDOF 7
ENDMDL
MODEL 13
REMARK minimizedAffinity -8.30644989
REMARK minimizedRMSD -1
REMARK SMILES CC(C)(C)c1nc(-c2cccc(NS(=O)(=O)c3c(F)cccc3F)c2F)c(-c2ccnc(N)n2)s1
REMARK SMILES IDX 8 1 9 2 10 3 11 4 12 5 25 6 26 7 7 8 5 9 6 10 35 11 27 12
REMARK SMILES IDX 2 13 1 14 3 15 4 16 28 17 29 18 34 19 30 20 32 21 31 22
REMARK SMILES IDX 33 23 13 26 14 28 15 29 16 30 17 31 18 32 23 33 20 34 22 35
REMARK SMILES IDX 21 36 19 37 24 38
REMARK H PARENT 33 24 33 25 13 27
ROOT
ATOM      1  C   UNL     1       5.194 -16.350 -44.585  1.00  0.00     0.040 A 
ATOM      2  C   UNL     1       5.410 -17.293 -45.599  1.00  0.00     0.013 A 
ATOM      3  C   UNL     1       6.182 -18.432 -45.351  1.00  0.00     0.003 A 
ATOM      4  C   UNL     1       6.728 -18.649 -44.084  1.00  0.00     0.030 A 
ATOM      5  C   UNL     1       6.491 -17.737 -43.059  1.00  0.00     0.085 A 
ATOM      6  C   UNL     1       5.733 -16.589 -43.318  1.00  0.00     0.156 A 
ATOM      7  F   UNL     1       5.505 -15.733 -42.309  1.00  0.00    -0.204 F 
ENDROOT
BRANCH   1   8
ATOM      8  C   UNL     1       4.378 -15.179 -44.863  1.00  0.00     0.094 A 
ATOM      9  C   UNL     1       2.444 -14.183 -45.325  1.00  0.00     0.099 A 
ATOM     10  N   UNL     1       3.032 -15.347 -45.141  1.00  0.00    -0.240 NA
ATOM     11  S   UNL     1       3.503 -12.826 -45.225  1.00  0.00    -0.116 S 
ATOM     12  C   UNL     1       4.834 -13.870 -44.908  1.00  0.00     0.081 A 
BRANCH   9  13
ATOM     13  C   UNL     1       0.955 -14.019 -45.634  1.00  0.00     0.014 C 
ATOM     14  C   UNL     1       0.247 -15.383 -45.548  1.00  0.00     0.018 C 
ATOM     15  C   UNL     1       0.307 -13.075 -44.596  1.00  0.00     0.018 C 
ATOM     16  C   UNL     1       0.735 -13.404 -47.030  1.00  0.00     0.018 C 
ENDBRANCH   9  13
BRANCH  12  17
ATOM     17  C   UNL     1       6.173 -13.297 -44.766  1.00  0.00     0.088 A 
ATOM     18  C   UNL     1       7.281 -13.889 -45.334  1.00  0.00     0.050 A 
ATOM     19  N   UNL     1       6.238 -12.164 -44.038  1.00  0.00    -0.212 NA
ATOM     20  C   UNL     1       8.474 -13.253 -45.096  1.00  0.00     0.117 A 
ATOM     21  C   UNL     1       7.446 -11.619 -43.884  1.00  0.00     0.220 A 
ATOM     22  N   UNL     1       8.582 -12.129 -44.368  1.00  0.00    -0.222 NA
BRANCH  21  23
ATOM     23  N   UNL     1       7.532 -10.468 -43.127  1.00  0.00    -0.368 N 
ATOM     24  H   UNL     1       6.736 -10.412 -42.504  1.00  0.00     0.159 HD
ATOM     25  H   UNL     1       8.451 -10.400 -42.708  1.00  0.00     0.159 HD
ENDBRANCH  21  23
ENDBRANCH  12  17
ENDBRANCH   1   8
BRANCH   5  26
ATOM     26  N   UNL     1       6.984 -17.960 -41.733  1.00  0.00    -0.276 N 
ATOM     27  H   UNL     1       6.819 -17.202 -41.067  1.00  0.00     0.180 HD
BRANCH  26  28
ATOM     28  S   UNL     1       6.669 -19.458 -40.999  1.00  0.00     0.267 S 
ATOM     29  O   UNL     1       7.041 -19.324 -39.607  1.00  0.00    -0.201 OA
ATOM     30  O   UNL     1       7.268 -20.489 -41.819  1.00  0.00    -0.201 OA
BRANCH  28  31
ATOM     31  C   UNL     1       4.924 -19.596 -41.061  1.00  0.00     0.158 A 
ATOM     32  C   UNL     1       4.294 -20.539 -41.859  1.00  0.00     0.146 A 
ATOM     33  C   UNL     1       4.159 -18.735 -40.283  1.00  0.00     0.146 A 
ATOM     34  C   UNL     1       2.900 -20.617 -41.886  1.00  0.00     0.041 A 
ATOM     35  C   UNL     1       2.767 -18.801 -40.303  1.00  0.00     0.041 A 
ATOM     36  C   UNL     1       2.133 -19.747 -41.108  1.00  0.00     0.006 A 
ATOM     37  F   UNL     1       4.981 -21.391 -42.628  1.00  0.00    -0.205 F 
ATOM     38  F   UNL     1       4.743 -17.796 -39.523  1.00  0.00    -0.205 F 
ENDBRANCH  28  31
ENDBRANCH  26  28
ENDBRANCH   5  26
TORSDOF 7
ENDMDL
MODEL 14
REMARK minimizedAffinity -8.30094814
REMARK minimizedRMSD -1
REMARK SMILES CC(C)(C)c1nc(-c2cccc(NS(=O)(=O)c3c(F)cccc3F)c2F)c(-c2ccnc(N)n2)s1
REMARK SMILES IDX 8 1 9 2 10 3 11 4 12 5 25 6 26 7 7 8 5 9 6 10 35 11 27 12
REMARK SMILES IDX 2 13 1 14 3 15 4 16 28 17 29 18 34 19 30 20 32 21 31 22
REMARK SMILES IDX 33 23 13 26 14 28 15 29 16 30 17 31 18 32 23 33 20 34 22 35
REMARK SMILES IDX 21 36 19 37 24 38
REMARK H PARENT 33 24 33 25 13 27
ROOT
ATOM      1  C   UNL     1       7.923 -16.125 -43.564  1.00  0.00     0.040 A 
ATOM      2  C   UNL     1       7.343 -16.051 -44.838  1.00  0.00     0.013 A 
ATOM      3  C   UNL     1       6.055 -16.549 -45.058  1.00  0.00     0.003 A 
ATOM      4  C   UNL     1       5.329 -17.109 -44.004  1.00  0.00     0.030 A 
ATOM      5  C   UNL     1       5.881 -17.156 -42.727  1.00  0.00     0.085 A 
ATOM      6  C   UNL     1       7.178 -16.673 -42.517  1.00  0.00     0.156 A 
ATOM      7  F   UNL     1       7.682 -16.715 -41.273  1.00  0.00    -0.204 F 
ENDROOT
BRANCH   1   8
ATOM      8  C   UNL     1       9.259 -15.589 -43.358  1.00  0.00     0.094 A 
ATOM      9  C   UNL     1      11.477 -15.723 -43.447  1.00  0.00     0.099 A 
ATOM     10  N   UNL     1      10.355 -16.381 -43.653  1.00  0.00    -0.240 NA
ATOM     11  S   UNL     1      11.264 -14.126 -42.832  1.00  0.00    -0.116 S 
ATOM     12  C   UNL     1       9.555 -14.332 -42.851  1.00  0.00     0.081 A 
BRANCH   9  13
ATOM     13  C   UNL     1      12.868 -16.310 -43.694  1.00  0.00     0.014 C 
ATOM     14  C   UNL     1      12.748 -17.652 -44.437  1.00  0.00     0.018 C 
ATOM     15  C   UNL     1      13.693 -15.345 -44.576  1.00  0.00     0.018 C 
ATOM     16  C   UNL     1      13.636 -16.510 -42.373  1.00  0.00     0.018 C 
ENDBRANCH   9  13
BRANCH  12  17
ATOM     17  C   UNL     1       8.701 -13.258 -42.345  1.00  0.00     0.088 A 
ATOM     18  C   UNL     1       8.335 -12.189 -43.134  1.00  0.00     0.050 A 
ATOM     19  N   UNL     1       8.313 -13.389 -41.060  1.00  0.00    -0.212 NA
ATOM     20  C   UNL     1       7.552 -11.244 -42.518  1.00  0.00     0.117 A 
ATOM     21  C   UNL     1       7.539 -12.422 -40.566  1.00  0.00     0.220 A 
ATOM     22  N   UNL     1       7.153 -11.333 -41.237  1.00  0.00    -0.222 NA
BRANCH  21  23
ATOM     23  N   UNL     1       7.148 -12.533 -39.247  1.00  0.00    -0.368 N 
ATOM     24  H   UNL     1       7.796 -13.131 -38.750  1.00  0.00     0.159 HD
ATOM     25  H   UNL     1       6.979 -11.612 -38.860  1.00  0.00     0.159 HD
ENDBRANCH  21  23
ENDBRANCH  12  17
ENDBRANCH   1   8
BRANCH   5  26
ATOM     26  N   UNL     1       5.141 -17.666 -41.613  1.00  0.00    -0.276 N 
ATOM     27  H   UNL     1       4.187 -17.312 -41.516  1.00  0.00     0.180 HD
BRANCH  26  28
ATOM     28  S   UNL     1       5.172 -19.340 -41.325  1.00  0.00     0.267 S 
ATOM     29  O   UNL     1       5.805 -19.528 -40.038  1.00  0.00    -0.201 OA
ATOM     30  O   UNL     1       5.711 -19.982 -42.504  1.00  0.00    -0.201 OA
BRANCH  28  31
ATOM     31  C   UNL     1       3.482 -19.764 -41.143  1.00  0.00     0.158 A 
ATOM     32  C   UNL     1       2.869 -20.691 -41.972  1.00  0.00     0.146 A 
ATOM     33  C   UNL     1       2.747 -19.152 -40.135  1.00  0.00     0.146 A 
ATOM     34  C   UNL     1       1.519 -21.001 -41.800  1.00  0.00     0.041 A 
ATOM     35  C   UNL     1       1.397 -19.452 -39.954  1.00  0.00     0.041 A 
ATOM     36  C   UNL     1       0.779 -20.381 -40.790  1.00  0.00     0.006 A 
ATOM     37  F   UNL     1       3.530 -21.309 -42.958  1.00  0.00    -0.205 F 
ATOM     38  F   UNL     1       3.309 -18.232 -39.337  1.00  0.00    -0.205 F 
ENDBRANCH  28  31
ENDBRANCH  26  28
ENDBRANCH   5  26
TORSDOF 7
ENDMDL
MODEL 15
REMARK minimizedAffinity -8.24707127
REMARK minimizedRMSD -1
REMARK SMILES CC(C)(C)c1nc(-c2cccc(NS(=O)(=O)c3c(F)cccc3F)c2F)c(-c2ccnc(N)n2)s1
REMARK SMILES IDX 8 1 9 2 10 3 11 4 12 5 25 6 26 7 7 8 5 9 6 10 35 11 27 12
REMARK SMILES IDX 2 13 1 14 3 15 4 16 28 17 29 18 34 19 30 20 32 21 31 22
REMARK SMILES IDX 33 23 13 26 14 28 15 29 16 30 17 31 18 32 23 33 20 34 22 35
REMARK SMILES IDX 21 36 19 37 24 38
REMARK H PARENT 33 24 33 25 13 27
ROOT
ATOM      1  C   UNL     1       7.553 -15.782 -44.388  1.00  0.00     0.040 A 
ATOM      2  C   UNL     1       6.510 -14.883 -44.648  1.00  0.00     0.013 A 
ATOM      3  C   UNL     1       5.178 -15.301 -44.563  1.00  0.00     0.003 A 
ATOM      4  C   UNL     1       4.876 -16.615 -44.200  1.00  0.00     0.030 A 
ATOM      5  C   UNL     1       5.903 -17.508 -43.906  1.00  0.00     0.085 A 
ATOM      6  C   UNL     1       7.235 -17.089 -44.010  1.00  0.00     0.156 A 
ATOM      7  F   UNL     1       8.206 -17.965 -43.705  1.00  0.00    -0.204 F 
ENDROOT
BRANCH   1   8
ATOM      8  C   UNL     1       8.929 -15.320 -44.470  1.00  0.00     0.094 A 
ATOM      9  C   UNL     1      10.959 -15.311 -45.381  1.00  0.00     0.099 A 
ATOM     10  N   UNL     1       9.769 -15.875 -45.421  1.00  0.00    -0.240 NA
ATOM     11  S   UNL     1      11.138 -14.115 -44.151  1.00  0.00    -0.116 S 
ATOM     12  C   UNL     1       9.512 -14.368 -43.647  1.00  0.00     0.081 A 
BRANCH   9  13
ATOM     13  C   UNL     1      12.112 -15.686 -46.312  1.00  0.00     0.014 C 
ATOM     14  C   UNL     1      12.916 -16.853 -45.711  1.00  0.00     0.018 C 
ATOM     15  C   UNL     1      11.553 -16.142 -47.678  1.00  0.00     0.018 C 
ATOM     16  C   UNL     1      13.044 -14.485 -46.564  1.00  0.00     0.018 C 
ENDBRANCH   9  13
BRANCH  12  17
ATOM     17  C   UNL     1       9.000 -13.631 -42.492  1.00  0.00     0.088 A 
ATOM     18  C   UNL     1       8.940 -14.198 -41.237  1.00  0.00     0.050 A 
ATOM     19  N   UNL     1       8.588 -12.374 -42.750  1.00  0.00    -0.212 NA
ATOM     20  C   UNL     1       8.414 -13.397 -40.254  1.00  0.00     0.117 A 
ATOM     21  C   UNL     1       8.109 -11.676 -41.719  1.00  0.00     0.220 A 
ATOM     22  N   UNL     1       7.983 -12.143 -40.473  1.00  0.00    -0.222 NA
BRANCH  21  23
ATOM     23  N   UNL     1       7.668 -10.393 -41.970  1.00  0.00    -0.368 N 
ATOM     24  H   UNL     1       7.433 -10.301 -42.950  1.00  0.00     0.159 HD
ATOM     25  H   UNL     1       6.954 -10.138 -41.298  1.00  0.00     0.159 HD
ENDBRANCH  21  23
ENDBRANCH  12  17
ENDBRANCH   1   8
BRANCH   5  26
ATOM     26  N   UNL     1       5.628 -18.844 -43.471  1.00  0.00    -0.276 N 
ATOM     27  H   UNL     1       6.051 -19.588 -44.031  1.00  0.00     0.180 HD
BRANCH  26  28
ATOM     28  S   UNL     1       5.783 -19.201 -41.818  1.00  0.00     0.267 S 
ATOM     29  O   UNL     1       6.152 -17.966 -41.160  1.00  0.00    -0.201 OA
ATOM     30  O   UNL     1       6.623 -20.373 -41.695  1.00  0.00    -0.201 OA
BRANCH  28  31
ATOM     31  C   UNL     1       4.150 -19.591 -41.319  1.00  0.00     0.158 A 
ATOM     32  C   UNL     1       3.541 -18.951 -40.251  1.00  0.00     0.146 A 
ATOM     33  C   UNL     1       3.454 -20.567 -42.023  1.00  0.00     0.146 A 
ATOM     34  C   UNL     1       2.239 -19.291 -39.879  1.00  0.00     0.041 A 
ATOM     35  C   UNL     1       2.154 -20.917 -41.660  1.00  0.00     0.041 A 
ATOM     36  C   UNL     1       1.542 -20.276 -40.583  1.00  0.00     0.006 A 
ATOM     37  F   UNL     1       4.166 -18.006 -39.539  1.00  0.00    -0.205 F 
ATOM     38  F   UNL     1       4.030 -21.220 -43.043  1.00  0.00    -0.205 F 
ENDBRANCH  28  31
ENDBRANCH  26  28
ENDBRANCH   5  26
TORSDOF 7
ENDMDL
MODEL 16
REMARK minimizedAffinity -8.22027016
REMARK minimizedRMSD -1
REMARK SMILES CC(C)(C)c1nc(-c2cccc(NS(=O)(=O)c3c(F)cccc3F)c2F)c(-c2ccnc(N)n2)s1
REMARK SMILES IDX 8 1 9 2 10 3 11 4 12 5 25 6 26 7 7 8 5 9 6 10 35 11 27 12
REMARK SMILES IDX 2 13 1 14 3 15 4 16 28 17 29 18 34 19 30 20 32 21 31 22
REMARK SMILES IDX 33 23 13 26 14 28 15 29 16 30 17 31 18 32 23 33 20 34 22 35
REMARK SMILES IDX 21 36 19 37 24 38
REMARK H PARENT 33 24 33 25 13 27
ROOT
ATOM      1  C   UNL     1       4.444 -15.204 -44.254  1.00  0.00     0.040 A 
ATOM      2  C   UNL     1       4.754 -16.079 -45.304  1.00  0.00     0.013 A 
ATOM      3  C   UNL     1       3.853 -16.269 -46.356  1.00  0.00     0.003 A 
ATOM      4  C   UNL     1       2.642 -15.573 -46.378  1.00  0.00     0.030 A 
ATOM      5  C   UNL     1       2.338 -14.675 -45.358  1.00  0.00     0.085 A 
ATOM      6  C   UNL     1       3.236 -14.503 -44.298  1.00  0.00     0.156 A 
ATOM      7  F   UNL     1       2.927 -13.619 -43.336  1.00  0.00    -0.204 F 
ENDROOT
BRANCH   1   8
ATOM      8  C   UNL     1       5.403 -15.015 -43.178  1.00  0.00     0.094 A 
ATOM      9  C   UNL     1       6.862 -13.796 -42.024  1.00  0.00     0.099 A 
ATOM     10  N   UNL     1       6.069 -13.805 -43.076  1.00  0.00    -0.240 NA
ATOM     11  S   UNL     1       6.883 -15.273 -41.134  1.00  0.00    -0.116 S 
ATOM     12  C   UNL     1       5.749 -15.965 -42.229  1.00  0.00     0.081 A 
BRANCH   9  13
ATOM     13  C   UNL     1       7.727 -12.602 -41.619  1.00  0.00     0.014 C 
ATOM     14  C   UNL     1       7.322 -12.109 -40.218  1.00  0.00     0.018 C 
ATOM     15  C   UNL     1       9.213 -13.026 -41.567  1.00  0.00     0.018 C 
ATOM     16  C   UNL     1       7.604 -11.449 -42.634  1.00  0.00     0.018 C 
ENDBRANCH   9  13
BRANCH  12  17
ATOM     17  C   UNL     1       5.349 -17.361 -42.054  1.00  0.00     0.088 A 
ATOM     18  C   UNL     1       6.180 -18.404 -42.401  1.00  0.00     0.050 A 
ATOM     19  N   UNL     1       4.116 -17.545 -41.541  1.00  0.00    -0.212 NA
ATOM     20  C   UNL     1       5.661 -19.660 -42.204  1.00  0.00     0.117 A 
ATOM     21  C   UNL     1       3.717 -18.806 -41.374  1.00  0.00     0.220 A 
ATOM     22  N   UNL     1       4.434 -19.885 -41.705  1.00  0.00    -0.222 NA
BRANCH  21  23
ATOM     23  N   UNL     1       2.450 -19.011 -40.867  1.00  0.00    -0.368 N 
ATOM     24  H   UNL     1       1.880 -18.192 -41.038  1.00  0.00     0.159 HD
ATOM     25  H   UNL     1       2.090 -19.901 -41.190  1.00  0.00     0.159 HD
ENDBRANCH  21  23
ENDBRANCH  12  17
ENDBRANCH   1   8
BRANCH   5  26
ATOM     26  N   UNL     1       1.134 -13.900 -45.381  1.00  0.00    -0.276 N 
ATOM     27  H   UNL     1       0.727 -13.690 -44.467  1.00  0.00     0.180 HD
BRANCH  26  28
ATOM     28  S   UNL     1       1.083 -12.523 -46.373  1.00  0.00     0.267 S 
ATOM     29  O   UNL     1       0.587 -12.957 -47.661  1.00  0.00    -0.201 OA
ATOM     30  O   UNL     1       2.363 -11.855 -46.270  1.00  0.00    -0.201 OA
BRANCH  28  31
ATOM     31  C   UNL     1      -0.161 -11.529 -45.643  1.00  0.00     0.158 A 
ATOM     32  C   UNL     1      -1.341 -11.231 -46.308  1.00  0.00     0.146 A 
ATOM     33  C   UNL     1       0.048 -11.035 -44.361  1.00  0.00     0.146 A 
ATOM     34  C   UNL     1      -2.309 -10.432 -45.696  1.00  0.00     0.041 A 
ATOM     35  C   UNL     1      -0.910 -10.234 -43.740  1.00  0.00     0.041 A 
ATOM     36  C   UNL     1      -2.095  -9.931 -44.410  1.00  0.00     0.006 A 
ATOM     37  F   UNL     1      -1.592 -11.679 -47.543  1.00  0.00    -0.205 F 
ATOM     38  F   UNL     1       1.192 -11.286 -43.706  1.00  0.00    -0.205 F 
ENDBRANCH  28  31
ENDBRANCH  26  28
ENDBRANCH   5  26
TORSDOF 7
ENDMDL
MODEL 17
REMARK minimizedAffinity -8.19821548
REMARK minimizedRMSD -1
REMARK SMILES CC(C)(C)c1nc(-c2cccc(NS(=O)(=O)c3c(F)cccc3F)c2F)c(-c2ccnc(N)n2)s1
REMARK SMILES IDX 8 1 9 2 10 3 11 4 12 5 25 6 26 7 7 8 5 9 6 10 35 11 27 12
REMARK SMILES IDX 2 13 1 14 3 15 4 16 28 17 29 18 34 19 30 20 32 21 31 22
REMARK SMILES IDX 33 23 13 26 14 28 15 29 16 30 17 31 18 32 23 33 20 34 22 35
REMARK SMILES IDX 21 36 19 37 24 38
REMARK H PARENT 33 24 33 25 13 27
ROOT
ATOM      1  C   UNL     1       5.644 -16.563 -41.854  1.00  0.00     0.040 A 
ATOM      2  C   UNL     1       6.625 -16.320 -40.883  1.00  0.00     0.013 A 
ATOM      3  C   UNL     1       7.352 -15.125 -40.897  1.00  0.00     0.003 A 
ATOM      4  C   UNL     1       7.092 -14.156 -41.869  1.00  0.00     0.030 A 
ATOM      5  C   UNL     1       6.095 -14.372 -42.816  1.00  0.00     0.085 A 
ATOM      6  C   UNL     1       5.384 -15.577 -42.809  1.00  0.00     0.156 A 
ATOM      7  F   UNL     1       4.417 -15.755 -43.724  1.00  0.00    -0.204 F 
ENDROOT
BRANCH   1   8
ATOM      8  C   UNL     1       4.894 -17.808 -41.811  1.00  0.00     0.094 A 
ATOM      9  C   UNL     1       3.080 -19.007 -41.343  1.00  0.00     0.099 A 
ATOM     10  N   UNL     1       3.624 -17.810 -41.258  1.00  0.00    -0.240 NA
ATOM     11  S   UNL     1       4.099 -20.206 -42.047  1.00  0.00    -0.116 S 
ATOM     12  C   UNL     1       5.348 -19.040 -42.258  1.00  0.00     0.081 A 
BRANCH   9  13
ATOM     13  C   UNL     1       1.676 -19.342 -40.838  1.00  0.00     0.014 C 
ATOM     14  C   UNL     1       1.553 -18.985 -39.346  1.00  0.00     0.018 C 
ATOM     15  C   UNL     1       0.629 -18.512 -41.617  1.00  0.00     0.018 C 
ATOM     16  C   UNL     1       1.343 -20.831 -41.049  1.00  0.00     0.018 C 
ENDBRANCH   9  13
BRANCH  12  17
ATOM     17  C   UNL     1       6.635 -19.465 -42.808  1.00  0.00     0.088 A 
ATOM     18  C   UNL     1       7.650 -19.937 -42.003  1.00  0.00     0.050 A 
ATOM     19  N   UNL     1       6.753 -19.351 -44.147  1.00  0.00    -0.212 NA
ATOM     20  C   UNL     1       8.810 -20.275 -42.655  1.00  0.00     0.117 A 
ATOM     21  C   UNL     1       7.917 -19.724 -44.680  1.00  0.00     0.220 A 
ATOM     22  N   UNL     1       8.970 -20.167 -43.985  1.00  0.00    -0.222 NA
BRANCH  21  23
ATOM     23  N   UNL     1       8.060 -19.598 -46.047  1.00  0.00    -0.368 N 
ATOM     24  H   UNL     1       7.405 -18.907 -46.394  1.00  0.00     0.159 HD
ATOM     25  H   UNL     1       9.037 -19.466 -46.280  1.00  0.00     0.159 HD
ENDBRANCH  21  23
ENDBRANCH  12  17
ENDBRANCH   1   8
BRANCH   5  26
ATOM     26  N   UNL     1       5.761 -13.374 -43.787  1.00  0.00    -0.276 N 
ATOM     27  H   UNL     1       5.795 -12.407 -43.458  1.00  0.00     0.180 HD
BRANCH  26  28
ATOM     28  S   UNL     1       6.460 -13.488 -45.331  1.00  0.00     0.267 S 
ATOM     29  O   UNL     1       6.737 -12.134 -45.761  1.00  0.00    -0.201 OA
ATOM     30  O   UNL     1       5.624 -14.353 -46.134  1.00  0.00    -0.201 OA
BRANCH  28  31
ATOM     31  C   UNL     1       8.002 -14.266 -45.035  1.00  0.00     0.158 A 
ATOM     32  C   UNL     1       8.161 -15.638 -45.156  1.00  0.00     0.146 A 
ATOM     33  C   UNL     1       9.088 -13.477 -44.676  1.00  0.00     0.146 A 
ATOM     34  C   UNL     1       9.404 -16.225 -44.908  1.00  0.00     0.041 A 
ATOM     35  C   UNL     1      10.334 -14.051 -44.424  1.00  0.00     0.041 A 
ATOM     36  C   UNL     1      10.493 -15.432 -44.541  1.00  0.00     0.006 A 
ATOM     37  F   UNL     1       7.149 -16.443 -45.497  1.00  0.00    -0.205 F 
ATOM     38  F   UNL     1       8.954 -12.151 -44.527  1.00  0.00    -0.205 F 
ENDBRANCH  28  31
ENDBRANCH  26  28
ENDBRANCH   5  26
TORSDOF 7
ENDMDL
MODEL 18
REMARK minimizedAffinity -8.10601521
REMARK minimizedRMSD -1
REMARK SMILES CC(C)(C)c1nc(-c2cccc(NS(=O)(=O)c3c(F)cccc3F)c2F)c(-c2ccnc(N)n2)s1
REMARK SMILES IDX 8 1 9 2 10 3 11 4 12 5 25 6 26 7 7 8 5 9 6 10 35 11 27 12
REMARK SMILES IDX 2 13 1 14 3 15 4 16 28 17 29 18 34 19 30 20 32 21 31 22
REMARK SMILES IDX 33 23 13 26 14 28 15 29 16 30 17 31 18 32 23 33 20 34 22 35
REMARK SMILES IDX 21 36 19 37 24 38
REMARK H PARENT 33 24 33 25 13 27
ROOT
ATOM      1  C   UNL     1       5.730 -16.139 -45.105  1.00  0.00     0.040 A 
ATOM      2  C   UNL     1       6.898 -15.916 -45.846  1.00  0.00     0.013 A 
ATOM      3  C   UNL     1       7.946 -16.842 -45.810  1.00  0.00     0.003 A 
ATOM      4  C   UNL     1       7.828 -18.006 -45.048  1.00  0.00     0.030 A 
ATOM      5  C   UNL     1       6.659 -18.256 -44.336  1.00  0.00     0.085 A 
ATOM      6  C   UNL     1       5.621 -17.317 -44.360  1.00  0.00     0.156 A 
ATOM      7  F   UNL     1       4.497 -17.588 -43.678  1.00  0.00    -0.204 F 
ENDROOT
BRANCH   1   8
ATOM      8  C   UNL     1       4.650 -15.168 -45.167  1.00  0.00     0.094 A 
ATOM      9  C   UNL     1       2.596 -14.531 -45.735  1.00  0.00     0.099 A 
ATOM     10  N   UNL     1       3.474 -15.510 -45.812  1.00  0.00    -0.240 NA
ATOM     11  S   UNL     1       3.170 -13.122 -44.923  1.00  0.00    -0.116 S 
ATOM     12  C   UNL     1       4.692 -13.880 -44.654  1.00  0.00     0.081 A 
BRANCH   9  13
ATOM     13  C   UNL     1       1.190 -14.597 -46.333  1.00  0.00     0.014 C 
ATOM     14  C   UNL     1       1.089 -15.781 -47.311  1.00  0.00     0.018 C 
ATOM     15  C   UNL     1       0.154 -14.817 -45.207  1.00  0.00     0.018 C 
ATOM     16  C   UNL     1       0.825 -13.287 -47.057  1.00  0.00     0.018 C 
ENDBRANCH   9  13
BRANCH  12  17
ATOM     17  C   UNL     1       5.759 -13.125 -43.997  1.00  0.00     0.088 A 
ATOM     18  C   UNL     1       6.492 -12.169 -44.669  1.00  0.00     0.050 A 
ATOM     19  N   UNL     1       5.973 -13.439 -42.704  1.00  0.00    -0.212 NA
ATOM     20  C   UNL     1       7.477 -11.559 -43.933  1.00  0.00     0.117 A 
ATOM     21  C   UNL     1       6.944 -12.773 -42.077  1.00  0.00     0.220 A 
ATOM     22  N   UNL     1       7.728 -11.851 -42.645  1.00  0.00    -0.222 NA
BRANCH  21  23
ATOM     23  N   UNL     1       7.187 -13.095 -40.758  1.00  0.00    -0.368 N 
ATOM     24  H   UNL     1       6.847 -14.029 -40.568  1.00  0.00     0.159 HD
ATOM     25  H   UNL     1       8.154 -12.900 -40.529  1.00  0.00     0.159 HD
ENDBRANCH  21  23
ENDBRANCH  12  17
ENDBRANCH   1   8
BRANCH   5  26
ATOM     26  N   UNL     1       6.481 -19.468 -43.595  1.00  0.00    -0.276 N 
ATOM     27  H   UNL     1       6.985 -20.283 -43.953  1.00  0.00     0.180 HD
BRANCH  26  28
ATOM     28  S   UNL     1       6.608 -19.403 -41.902  1.00  0.00     0.267 S 
ATOM     29  O   UNL     1       7.052 -18.066 -41.571  1.00  0.00    -0.201 OA
ATOM     30  O   UNL     1       7.372 -20.554 -41.471  1.00  0.00    -0.201 OA
BRANCH  28  31
ATOM     31  C   UNL     1       4.952 -19.554 -41.353  1.00  0.00     0.158 A 
ATOM     32  C   UNL     1       4.422 -18.709 -40.390  1.00  0.00     0.146 A 
ATOM     33  C   UNL     1       4.154 -20.548 -41.907  1.00  0.00     0.146 A 
ATOM     34  C   UNL     1       3.098 -18.862 -39.973  1.00  0.00     0.041 A 
ATOM     35  C   UNL     1       2.831 -20.713 -41.498  1.00  0.00     0.041 A 
ATOM     36  C   UNL     1       2.300 -19.865 -40.527  1.00  0.00     0.006 A 
ATOM     37  F   UNL     1       5.146 -17.736 -39.823  1.00  0.00    -0.205 F 
ATOM     38  F   UNL     1       4.651 -21.396 -42.821  1.00  0.00    -0.205 F 
ENDBRANCH  28  31
ENDBRANCH  26  28
ENDBRANCH   5  26
TORSDOF 7
ENDMDL
MODEL 19
REMARK minimizedAffinity -8.06049061
REMARK minimizedRMSD -1
REMARK SMILES CC(C)(C)c1nc(-c2cccc(NS(=O)(=O)c3c(F)cccc3F)c2F)c(-c2ccnc(N)n2)s1
REMARK SMILES IDX 8 1 9 2 10 3 11 4 12 5 25 6 26 7 7 8 5 9 6 10 35 11 27 12
REMARK SMILES IDX 2 13 1 14 3 15 4 16 28 17 29 18 34 19 30 20 32 21 31 22
REMARK SMILES IDX 33 23 13 26 14 28 15 29 16 30 17 31 18 32 23 33 20 34 22 35
REMARK SMILES IDX 21 36 19 37 24 38
REMARK H PARENT 33 24 33 25 13 27
ROOT
ATOM      1  C   UNL     1       7.843 -12.344 -42.218  1.00  0.00     0.040 A 
ATOM      2  C   UNL     1       7.350 -12.324 -40.907  1.00  0.00     0.013 A 
ATOM      3  C   UNL     1       8.064 -12.939 -39.873  1.00  0.00     0.003 A 
ATOM      4  C   UNL     1       9.285 -13.563 -40.138  1.00  0.00     0.030 A 
ATOM      5  C   UNL     1       9.802 -13.558 -41.430  1.00  0.00     0.085 A 
ATOM      6  C   UNL     1       9.074 -12.957 -42.464  1.00  0.00     0.156 A 
ATOM      7  F   UNL     1       9.602 -12.952 -43.699  1.00  0.00    -0.204 F 
ENDROOT
BRANCH   1   8
ATOM      8  C   UNL     1       7.088 -11.687 -43.273  1.00  0.00     0.094 A 
ATOM      9  C   UNL     1       6.416  -9.888 -44.395  1.00  0.00     0.099 A 
ATOM     10  N   UNL     1       7.117 -10.305 -43.361  1.00  0.00    -0.240 NA
ATOM     11  S   UNL     1       5.639 -11.146 -45.283  1.00  0.00    -0.116 S 
ATOM     12  C   UNL     1       6.293 -12.325 -44.213  1.00  0.00     0.081 A 
BRANCH   9  13
ATOM     13  C   UNL     1       6.259  -8.417 -44.781  1.00  0.00     0.014 C 
ATOM     14  C   UNL     1       5.514  -8.301 -46.123  1.00  0.00     0.018 C 
ATOM     15  C   UNL     1       5.429  -7.680 -43.706  1.00  0.00     0.018 C 
ATOM     16  C   UNL     1       7.627  -7.714 -44.881  1.00  0.00     0.018 C 
ENDBRANCH   9  13
BRANCH  12  17
ATOM     17  C   UNL     1       5.935 -13.731 -44.396  1.00  0.00     0.088 A 
ATOM     18  C   UNL     1       6.573 -14.529 -45.322  1.00  0.00     0.050 A 
ATOM     19  N   UNL     1       4.939 -14.179 -43.605  1.00  0.00    -0.212 NA
ATOM     20  C   UNL     1       6.115 -15.820 -45.401  1.00  0.00     0.117 A 
ATOM     21  C   UNL     1       4.584 -15.456 -43.752  1.00  0.00     0.220 A 
ATOM     22  N   UNL     1       5.119 -16.301 -44.638  1.00  0.00    -0.222 NA
BRANCH  21  23
ATOM     23  N   UNL     1       3.555 -15.924 -42.962  1.00  0.00    -0.368 N 
ATOM     24  H   UNL     1       2.983 -15.147 -42.654  1.00  0.00     0.159 HD
ATOM     25  H   UNL     1       3.082 -16.688 -43.429  1.00  0.00     0.159 HD
ENDBRANCH  21  23
ENDBRANCH  12  17
ENDBRANCH   1   8
BRANCH   5  26
ATOM     26  N   UNL     1      11.079 -14.134 -41.725  1.00  0.00    -0.276 N 
ATOM     27  H   UNL     1      11.799 -14.002 -41.011  1.00  0.00     0.180 HD
BRANCH  26  28
ATOM     28  S   UNL     1      11.128 -15.727 -42.312  1.00  0.00     0.267 S 
ATOM     29  O   UNL     1       9.818 -16.296 -42.077  1.00  0.00    -0.201 OA
ATOM     30  O   UNL     1      12.309 -16.364 -41.770  1.00  0.00    -0.201 OA
BRANCH  28  31
ATOM     31  C   UNL     1      11.307 -15.529 -44.044  1.00  0.00     0.158 A 
ATOM     32  C   UNL     1      10.361 -16.011 -44.935  1.00  0.00     0.146 A 
ATOM     33  C   UNL     1      12.428 -14.864 -44.525  1.00  0.00     0.146 A 
ATOM     34  C   UNL     1      10.539 -15.839 -46.309  1.00  0.00     0.041 A 
ATOM     35  C   UNL     1      12.619 -14.687 -45.895  1.00  0.00     0.041 A 
ATOM     36  C   UNL     1      11.670 -15.176 -46.792  1.00  0.00     0.006 A 
ATOM     37  F   UNL     1       9.264 -16.659 -44.525  1.00  0.00    -0.205 F 
ATOM     38  F   UNL     1      13.371 -14.411 -43.685  1.00  0.00    -0.205 F 
ENDBRANCH  28  31
ENDBRANCH  26  28
ENDBRANCH   5  26
TORSDOF 7
ENDMDL
MODEL 20
REMARK minimizedAffinity -7.93960905
REMARK minimizedRMSD -1
REMARK SMILES CC(C)(C)c1nc(-c2cccc(NS(=O)(=O)c3c(F)cccc3F)c2F)c(-c2ccnc(N)n2)s1
REMARK SMILES IDX 8 1 9 2 10 3 11 4 12 5 25 6 26 7 7 8 5 9 6 10 35 11 27 12
REMARK SMILES IDX 2 13 1 14 3 15 4 16 28 17 29 18 34 19 30 20 32 21 31 22
REMARK SMILES IDX 33 23 13 26 14 28 15 29 16 30 17 31 18 32 23 33 20 34 22 35
REMARK SMILES IDX 21 36 19 37 24 38
REMARK H PARENT 33 24 33 25 13 27
ROOT
ATOM      1  C   UNL     1       7.409 -15.344 -44.229  1.00  0.00     0.040 A 
ATOM      2  C   UNL     1       6.980 -16.542 -43.644  1.00  0.00     0.013 A 
ATOM      3  C   UNL     1       5.659 -16.973 -43.803  1.00  0.00     0.003 A 
ATOM      4  C   UNL     1       4.761 -16.221 -44.563  1.00  0.00     0.030 A 
ATOM      5  C   UNL     1       5.185 -15.046 -45.177  1.00  0.00     0.085 A 
ATOM      6  C   UNL     1       6.503 -14.610 -44.999  1.00  0.00     0.156 A 
ATOM      7  F   UNL     1       6.892 -13.482 -45.616  1.00  0.00    -0.204 F 
ENDROOT
BRANCH   1   8
ATOM      8  C   UNL     1       8.790 -14.923 -44.059  1.00  0.00     0.094 A 
ATOM      9  C   UNL     1      10.954 -14.994 -44.568  1.00  0.00     0.099 A 
ATOM     10  N   UNL     1       9.776 -15.526 -44.821  1.00  0.00    -0.240 NA
ATOM     11  S   UNL     1      10.937 -13.771 -43.353  1.00  0.00    -0.116 S 
ATOM     12  C   UNL     1       9.237 -13.965 -43.161  1.00  0.00     0.081 A 
BRANCH   9  13
ATOM     13  C   UNL     1      12.250 -15.426 -45.255  1.00  0.00     0.014 C 
ATOM     14  C   UNL     1      13.463 -14.970 -44.425  1.00  0.00     0.018 C 
ATOM     15  C   UNL     1      12.295 -16.967 -45.364  1.00  0.00     0.018 C 
ATOM     16  C   UNL     1      12.348 -14.852 -46.682  1.00  0.00     0.018 C 
ENDBRANCH   9  13
BRANCH  12  17
ATOM     17  C   UNL     1       8.540 -13.183 -42.140  1.00  0.00     0.088 A 
ATOM     18  C   UNL     1       8.142 -11.883 -42.367  1.00  0.00     0.050 A 
ATOM     19  N   UNL     1       8.329 -13.822 -40.972  1.00  0.00    -0.212 NA
ATOM     20  C   UNL     1       7.521 -11.265 -41.309  1.00  0.00     0.117 A 
ATOM     21  C   UNL     1       7.701 -13.135 -40.017  1.00  0.00     0.220 A 
ATOM     22  N   UNL     1       7.301 -11.864 -40.127  1.00  0.00    -0.222 NA
BRANCH  21  23
ATOM     23  N   UNL     1       7.493 -13.769 -38.809  1.00  0.00    -0.368 N 
ATOM     24  H   UNL     1       8.161 -14.522 -38.701  1.00  0.00     0.159 HD
ATOM     25  H   UNL     1       7.445 -13.084 -38.065  1.00  0.00     0.159 HD
ENDBRANCH  21  23
ENDBRANCH  12  17
ENDBRANCH   1   8
BRANCH   5  26
ATOM     26  N   UNL     1       4.308 -14.283 -46.013  1.00  0.00    -0.276 N 
ATOM     27  H   UNL     1       3.922 -14.779 -46.820  1.00  0.00     0.180 HD
BRANCH  26  28
ATOM     28  S   UNL     1       3.098 -13.350 -45.270  1.00  0.00     0.267 S 
ATOM     29  O   UNL     1       2.945 -12.155 -46.072  1.00  0.00    -0.201 OA
ATOM     30  O   UNL     1       3.418 -13.250 -43.863  1.00  0.00    -0.201 OA
BRANCH  28  31
ATOM     31  C   UNL     1       1.646 -14.307 -45.479  1.00  0.00     0.158 A 
ATOM     32  C   UNL     1       0.840 -14.177 -46.600  1.00  0.00     0.146 A 
ATOM     33  C   UNL     1       1.304 -15.223 -44.491  1.00  0.00     0.146 A 
ATOM     34  C   UNL     1      -0.312 -14.954 -46.730  1.00  0.00     0.041 A 
ATOM     35  C   UNL     1       0.155 -16.003 -44.608  1.00  0.00     0.041 A 
ATOM     36  C   UNL     1      -0.658 -15.869 -45.733  1.00  0.00     0.006 A 
ATOM     37  F   UNL     1       1.122 -13.310 -47.580  1.00  0.00    -0.205 F 
ATOM     38  F   UNL     1       2.052 -15.350 -43.384  1.00  0.00    -0.205 F 
ENDBRANCH  28  31
ENDBRANCH  26  28
ENDBRANCH   5  26
TORSDOF 7
ENDMDL
