MODEL 1
REMARK minimizedAffinity -7.14199972
REMARK minimizedRMSD -1
REMARK SMILES C#Cc1cccc(Nc2ncnc3cc(OCCOC)c(OCCOC)cc23)c1
REMARK SMILES IDX 9 1 10 2 11 3 12 4 13 5 14 6 15 7 21 8 27 9 28 10 8 11 7 13
REMARK SMILES IDX 2 14 3 15 4 16 29 17 5 18 6 19 1 20 22 21 23 22 24 23 25 24
REMARK SMILES IDX 26 25 16 26 17 27 18 28 19 29 20 30
REMARK H PARENT 8 12
ROOT
ATOM      1  C   UNL     1      -0.408 -18.968 -41.369  1.00  0.00     0.141 A 
ATOM      2  N   UNL     1      -1.461 -19.794 -41.440  1.00  0.00    -0.219 NA
ATOM      3  C   UNL     1      -2.477 -19.699 -42.308  1.00  0.00     0.224 A 
ATOM      4  N   UNL     1      -2.465 -18.693 -43.198  1.00  0.00    -0.236 NA
ATOM      5  C   UNL     1      -1.447 -17.820 -43.195  1.00  0.00     0.080 A 
ATOM      6  C   UNL     1      -1.471 -16.792 -44.131  1.00  0.00     0.079 A 
ATOM      7  C   UNL     1      -0.489 -15.839 -44.226  1.00  0.00     0.163 A 
ATOM      8  C   UNL     1       0.562 -15.974 -43.297  1.00  0.00     0.162 A 
ATOM      9  C   UNL     1       0.589 -16.990 -42.370  1.00  0.00     0.064 A 
ATOM     10  C   UNL     1      -0.388 -17.926 -42.285  1.00  0.00     0.047 A 
ENDROOT
BRANCH   1  11
ATOM     11  N   UNL     1       0.650 -19.102 -40.434  1.00  0.00    -0.340 N 
ATOM     12  H   UNL     1       0.486 -18.942 -39.411  1.00  0.00     0.168 HD
BRANCH  11  13
ATOM     13  C   UNL     1       1.988 -19.453 -40.777  1.00  0.00     0.041 A 
ATOM     14  C   UNL     1       5.538 -18.659 -39.964  1.00  0.00    -0.070 C 
ATOM     15  C   UNL     1       4.375 -19.278 -40.578  1.00  0.00     0.026 A 
ATOM     16  C   UNL     1       4.577 -20.249 -41.516  1.00  0.00     0.017 A 
ATOM     17  C   UNL     1       3.095 -18.872 -40.201  1.00  0.00     0.043 A 
ATOM     18  C   UNL     1       3.475 -20.850 -42.110  1.00  0.00     0.003 A 
ATOM     19  C   UNL     1       2.224 -20.431 -41.720  1.00  0.00     0.026 A 
ATOM     20  C   UNL     1       6.500 -18.143 -39.450  1.00  0.00     0.010 C 
ENDBRANCH  11  13
ENDBRANCH   1  11
BRANCH   8  21
ATOM     21  O   UNL     1       1.595 -15.048 -43.331  1.00  0.00    -0.487 OA
BRANCH  21  22
ATOM     22  C   UNL     1       2.857 -15.439 -43.822  1.00  0.00     0.258 C 
BRANCH  22  23
ATOM     23  C   UNL     1       3.859 -14.291 -43.624  1.00  0.00     0.201 C 
BRANCH  23  24
ATOM     24  O   UNL     1       4.859 -14.760 -42.773  1.00  0.00    -0.381 OA
ATOM     25  C   UNL     1       4.736 -16.125 -42.632  1.00  0.00     0.195 C 
ENDBRANCH  23  24
ENDBRANCH  22  23
ENDBRANCH  21  22
ENDBRANCH   8  21
BRANCH   7  26
ATOM     26  O   UNL     1      -0.413 -14.805 -45.082  1.00  0.00    -0.487 OA
BRANCH  26  27
ATOM     27  C   UNL     1       0.035 -14.857 -46.399  1.00  0.00     0.258 C 
BRANCH  27  28
ATOM     28  C   UNL     1       0.985 -13.770 -46.810  1.00  0.00     0.201 C 
BRANCH  28  29
ATOM     29  O   UNL     1       0.413 -12.894 -47.719  1.00  0.00    -0.381 OA
ATOM     30  C   UNL     1      -0.642 -12.214 -47.153  1.00  0.00     0.195 C 
ENDBRANCH  28  29
ENDBRANCH  27  28
ENDBRANCH  26  27
ENDBRANCH   7  26
TORSDOF 10
ENDMDL
MODEL 2
REMARK minimizedAffinity -6.98462248
REMARK minimizedRMSD -1
REMARK SMILES C#Cc1cccc(Nc2ncnc3cc(OCCOC)c(OCCOC)cc23)c1
REMARK SMILES IDX 9 1 10 2 11 3 12 4 13 5 14 6 15 7 21 8 27 9 28 10 8 11 7 13
REMARK SMILES IDX 2 14 3 15 4 16 29 17 5 18 6 19 1 20 22 21 23 22 24 23 25 24
REMARK SMILES IDX 26 25 16 26 17 27 18 28 19 29 20 30
REMARK H PARENT 8 12
ROOT
ATOM      1  C   UNL     1       1.449 -14.551 -43.830  1.00  0.00     0.141 A 
ATOM      2  N   UNL     1       2.246 -15.394 -44.499  1.00  0.00    -0.219 NA
ATOM      3  C   UNL     1       3.155 -15.051 -45.422  1.00  0.00     0.224 A 
ATOM      4  N   UNL     1       3.299 -13.750 -45.724  1.00  0.00    -0.236 NA
ATOM      5  C   UNL     1       2.538 -12.839 -45.100  1.00  0.00     0.080 A 
ATOM      6  C   UNL     1       2.716 -11.503 -45.441  1.00  0.00     0.079 A 
ATOM      7  C   UNL     1       1.998 -10.481 -44.874  1.00  0.00     0.163 A 
ATOM      8  C   UNL     1       1.054 -10.882 -43.908  1.00  0.00     0.162 A 
ATOM      9  C   UNL     1       0.876 -12.203 -43.568  1.00  0.00     0.064 A 
ATOM     10  C   UNL     1       1.591 -13.205 -44.136  1.00  0.00     0.047 A 
ENDROOT
BRANCH   1  11
ATOM     11  N   UNL     1       0.497 -14.954 -42.858  1.00  0.00    -0.340 N 
ATOM     12  H   UNL     1       0.011 -14.246 -42.256  1.00  0.00     0.168 HD
BRANCH  11  13
ATOM     13  C   UNL     1       0.123 -16.307 -42.611  1.00  0.00     0.041 A 
ATOM     14  C   UNL     1       1.242 -19.394 -40.847  1.00  0.00    -0.070 C 
ATOM     15  C   UNL     1       0.439 -18.484 -41.647  1.00  0.00     0.026 A 
ATOM     16  C   UNL     1      -0.735 -18.944 -42.171  1.00  0.00     0.017 A 
ATOM     17  C   UNL     1       0.878 -17.176 -41.856  1.00  0.00     0.043 A 
ATOM     18  C   UNL     1      -1.513 -18.084 -42.935  1.00  0.00     0.003 A 
ATOM     19  C   UNL     1      -1.057 -16.801 -43.128  1.00  0.00     0.026 A 
ATOM     20  C   UNL     1       1.912 -20.145 -40.182  1.00  0.00     0.010 C 
ENDBRANCH  11  13
ENDBRANCH   1  11
BRANCH   8  21
ATOM     21  O   UNL     1       0.290  -9.904 -43.287  1.00  0.00    -0.487 OA
BRANCH  21  22
ATOM     22  C   UNL     1      -1.115  -9.966 -43.375  1.00  0.00     0.258 C 
BRANCH  22  23
ATOM     23  C   UNL     1      -1.537  -9.898 -44.851  1.00  0.00     0.201 C 
BRANCH  23  24
ATOM     24  O   UNL     1      -2.648 -10.729 -45.000  1.00  0.00    -0.381 OA
ATOM     25  C   UNL     1      -3.674 -10.266 -44.205  1.00  0.00     0.195 C 
ENDBRANCH  23  24
ENDBRANCH  22  23
ENDBRANCH  21  22
ENDBRANCH   8  21
BRANCH   7  26
ATOM     26  O   UNL     1       2.083  -9.163 -45.129  1.00  0.00    -0.487 OA
BRANCH  26  27
ATOM     27  C   UNL     1       3.237  -8.386 -45.076  1.00  0.00     0.258 C 
BRANCH  27  28
ATOM     28  C   UNL     1       3.329  -7.430 -43.923  1.00  0.00     0.201 C 
BRANCH  28  29
ATOM     29  O   UNL     1       3.700  -8.064 -42.748  1.00  0.00    -0.381 OA
ATOM     30  C   UNL     1       4.536  -7.267 -41.998  1.00  0.00     0.195 C 
ENDBRANCH  28  29
ENDBRANCH  27  28
ENDBRANCH  26  27
ENDBRANCH   7  26
TORSDOF 10
ENDMDL
MODEL 3
REMARK minimizedAffinity -6.98083687
REMARK minimizedRMSD -1
REMARK SMILES C#Cc1cccc(Nc2ncnc3cc(OCCOC)c(OCCOC)cc23)c1
REMARK SMILES IDX 9 1 10 2 11 3 12 4 13 5 14 6 15 7 21 8 27 9 28 10 8 11 7 13
REMARK SMILES IDX 2 14 3 15 4 16 29 17 5 18 6 19 1 20 22 21 23 22 24 23 25 24
REMARK SMILES IDX 26 25 16 26 17 27 18 28 19 29 20 30
REMARK H PARENT 8 12
ROOT
ATOM      1  C   UNL     1      -0.257 -11.510 -44.804  1.00  0.00     0.141 A 
ATOM      2  N   UNL     1      -0.377 -12.655 -45.489  1.00  0.00    -0.219 NA
ATOM      3  C   UNL     1       0.566 -13.210 -46.263  1.00  0.00     0.224 A 
ATOM      4  N   UNL     1       1.747 -12.582 -46.381  1.00  0.00    -0.236 NA
ATOM      5  C   UNL     1       1.949 -11.428 -45.728  1.00  0.00     0.080 A 
ATOM      6  C   UNL     1       3.185 -10.807 -45.876  1.00  0.00     0.079 A 
ATOM      7  C   UNL     1       3.511  -9.625 -45.261  1.00  0.00     0.163 A 
ATOM      8  C   UNL     1       2.494  -9.075 -44.455  1.00  0.00     0.162 A 
ATOM      9  C   UNL     1       1.271  -9.686 -44.306  1.00  0.00     0.064 A 
ATOM     10  C   UNL     1       0.959 -10.854 -44.920  1.00  0.00     0.047 A 
ENDROOT
BRANCH   1  11
ATOM     11  N   UNL     1      -1.280 -10.954 -43.994  1.00  0.00    -0.340 N 
ATOM     12  H   UNL     1      -1.367 -11.216 -42.983  1.00  0.00     0.168 HD
BRANCH  11  13
ATOM     13  C   UNL     1      -2.256 -10.023 -44.456  1.00  0.00     0.041 A 
ATOM     14  C   UNL     1      -5.130  -7.954 -43.295  1.00  0.00    -0.070 C 
ATOM     15  C   UNL     1      -4.126  -8.545 -44.163  1.00  0.00     0.026 A 
ATOM     16  C   UNL     1      -4.110  -8.179 -45.479  1.00  0.00     0.017 A 
ATOM     17  C   UNL     1      -3.212  -9.460 -43.641  1.00  0.00     0.043 A 
ATOM     18  C   UNL     1      -3.154  -8.734 -46.319  1.00  0.00     0.003 A 
ATOM     19  C   UNL     1      -2.265  -9.634 -45.779  1.00  0.00     0.026 A 
ATOM     20  C   UNL     1      -5.962  -7.466 -42.568  1.00  0.00     0.010 C 
ENDBRANCH  11  13
ENDBRANCH   1  11
BRANCH   8  21
ATOM     21  O   UNL     1       2.749  -7.880 -43.797  1.00  0.00    -0.487 OA
BRANCH  21  22
ATOM     22  C   UNL     1       2.206  -6.682 -44.305  1.00  0.00     0.258 C 
BRANCH  22  23
ATOM     23  C   UNL     1       3.102  -5.503 -43.895  1.00  0.00     0.201 C 
BRANCH  23  24
ATOM     24  O   UNL     1       4.415  -5.856 -44.206  1.00  0.00    -0.381 OA
ATOM     25  C   UNL     1       4.719  -5.410 -45.474  1.00  0.00     0.195 C 
ENDBRANCH  23  24
ENDBRANCH  22  23
ENDBRANCH  21  22
ENDBRANCH   8  21
BRANCH   7  26
ATOM     26  O   UNL     1       4.664  -8.938 -45.336  1.00  0.00    -0.487 OA
BRANCH  26  27
ATOM     27  C   UNL     1       5.933  -9.420 -45.027  1.00  0.00     0.258 C 
BRANCH  27  28
ATOM     28  C   UNL     1       6.996  -9.173 -46.057  1.00  0.00     0.201 C 
BRANCH  28  29
ATOM     29  O   UNL     1       8.090  -8.509 -45.528  1.00  0.00    -0.381 OA
ATOM     30  C   UNL     1       7.696  -7.536 -44.637  1.00  0.00     0.195 C 
ENDBRANCH  28  29
ENDBRANCH  27  28
ENDBRANCH  26  27
ENDBRANCH   7  26
TORSDOF 10
ENDMDL
MODEL 4
REMARK minimizedAffinity -6.89178562
REMARK minimizedRMSD -1
REMARK SMILES C#Cc1cccc(Nc2ncnc3cc(OCCOC)c(OCCOC)cc23)c1
REMARK SMILES IDX 9 1 10 2 11 3 12 4 13 5 14 6 15 7 21 8 27 9 28 10 8 11 7 13
REMARK SMILES IDX 2 14 3 15 4 16 29 17 5 18 6 19 1 20 22 21 23 22 24 23 25 24
REMARK SMILES IDX 26 25 16 26 17 27 18 28 19 29 20 30
REMARK H PARENT 8 12
ROOT
ATOM      1  C   UNL     1       2.131 -18.511 -41.248  1.00  0.00     0.141 A 
ATOM      2  N   UNL     1       2.076 -19.728 -40.688  1.00  0.00    -0.219 NA
ATOM      3  C   UNL     1       0.996 -20.519 -40.633  1.00  0.00     0.224 A 
ATOM      4  N   UNL     1      -0.149 -20.077 -41.178  1.00  0.00    -0.236 NA
ATOM      5  C   UNL     1      -0.180 -18.868 -41.758  1.00  0.00     0.080 A 
ATOM      6  C   UNL     1      -1.384 -18.445 -42.311  1.00  0.00     0.079 A 
ATOM      7  C   UNL     1      -1.542 -17.231 -42.930  1.00  0.00     0.163 A 
ATOM      8  C   UNL     1      -0.384 -16.429 -42.968  1.00  0.00     0.162 A 
ATOM      9  C   UNL     1       0.809 -16.844 -42.423  1.00  0.00     0.064 A 
ATOM     10  C   UNL     1       0.953 -18.047 -41.813  1.00  0.00     0.047 A 
ENDROOT
BRANCH   1  11
ATOM     11  N   UNL     1       3.295 -17.703 -41.286  1.00  0.00    -0.340 N 
ATOM     12  H   UNL     1       3.232 -16.679 -41.503  1.00  0.00     0.168 HD
BRANCH  11  13
ATOM     13  C   UNL     1       4.616 -18.182 -41.045  1.00  0.00     0.041 A 
ATOM     14  C   UNL     1       7.484 -19.875 -42.720  1.00  0.00    -0.070 C 
ATOM     15  C   UNL     1       6.677 -19.228 -41.698  1.00  0.00     0.026 A 
ATOM     16  C   UNL     1       7.218 -19.060 -40.456  1.00  0.00     0.017 A 
ATOM     17  C   UNL     1       5.387 -18.797 -42.006  1.00  0.00     0.043 A 
ATOM     18  C   UNL     1       6.459 -18.441 -39.471  1.00  0.00     0.003 A 
ATOM     19  C   UNL     1       5.189 -18.027 -39.800  1.00  0.00     0.026 A 
ATOM     20  C   UNL     1       8.149 -20.411 -43.572  1.00  0.00     0.010 C 
ENDBRANCH  11  13
ENDBRANCH   1  11
BRANCH   8  21
ATOM     21  O   UNL     1      -0.463 -15.186 -43.580  1.00  0.00    -0.487 OA
BRANCH  21  22
ATOM     22  C   UNL     1       0.695 -14.387 -43.675  1.00  0.00     0.258 C 
BRANCH  22  23
ATOM     23  C   UNL     1       0.384 -13.136 -44.510  1.00  0.00     0.201 C 
BRANCH  23  24
ATOM     24  O   UNL     1      -0.393 -13.546 -45.593  1.00  0.00    -0.381 OA
ATOM     25  C   UNL     1       0.264 -13.246 -46.766  1.00  0.00     0.195 C 
ENDBRANCH  23  24
ENDBRANCH  22  23
ENDBRANCH  21  22
ENDBRANCH   8  21
BRANCH   7  26
ATOM     26  O   UNL     1      -2.653 -16.720 -43.491  1.00  0.00    -0.487 OA
BRANCH  26  27
ATOM     27  C   UNL     1      -3.850 -17.394 -43.709  1.00  0.00     0.258 C 
BRANCH  27  28
ATOM     28  C   UNL     1      -4.890 -17.244 -42.638  1.00  0.00     0.201 C 
BRANCH  28  29
ATOM     29  O   UNL     1      -4.750 -18.194 -41.639  1.00  0.00    -0.381 OA
ATOM     30  C   UNL     1      -5.958 -18.452 -41.029  1.00  0.00     0.195 C 
ENDBRANCH  28  29
ENDBRANCH  27  28
ENDBRANCH  26  27
ENDBRANCH   7  26
TORSDOF 10
ENDMDL
MODEL 5
REMARK minimizedAffinity -6.85744143
REMARK minimizedRMSD -1
REMARK SMILES C#Cc1cccc(Nc2ncnc3cc(OCCOC)c(OCCOC)cc23)c1
REMARK SMILES IDX 9 1 10 2 11 3 12 4 13 5 14 6 15 7 21 8 27 9 28 10 8 11 7 13
REMARK SMILES IDX 2 14 3 15 4 16 29 17 5 18 6 19 1 20 22 21 23 22 24 23 25 24
REMARK SMILES IDX 26 25 16 26 17 27 18 28 19 29 20 30
REMARK H PARENT 8 12
ROOT
ATOM      1  C   UNL     1      -0.879  -7.159 -45.560  1.00  0.00     0.141 A 
ATOM      2  N   UNL     1      -1.099  -5.839 -45.630  1.00  0.00    -0.219 NA
ATOM      3  C   UNL     1      -0.223  -4.879 -45.304  1.00  0.00     0.224 A 
ATOM      4  N   UNL     1       0.993  -5.245 -44.864  1.00  0.00    -0.236 NA
ATOM      5  C   UNL     1       1.293  -6.548 -44.763  1.00  0.00     0.080 A 
ATOM      6  C   UNL     1       2.561  -6.886 -44.302  1.00  0.00     0.079 A 
ATOM      7  C   UNL     1       2.986  -8.182 -44.156  1.00  0.00     0.163 A 
ATOM      8  C   UNL     1       2.037  -9.162 -44.509  1.00  0.00     0.162 A 
ATOM      9  C   UNL     1       0.782  -8.831 -44.966  1.00  0.00     0.064 A 
ATOM     10  C   UNL     1       0.373  -7.546 -45.106  1.00  0.00     0.047 A 
ENDROOT
BRANCH   1  11
ATOM     11  N   UNL     1      -1.834  -8.146 -45.914  1.00  0.00    -0.340 N 
ATOM     12  H   UNL     1      -1.582  -8.928 -46.566  1.00  0.00     0.168 HD
BRANCH  11  13
ATOM     13  C   UNL     1      -3.178  -8.173 -45.440  1.00  0.00     0.041 A 
ATOM     14  C   UNL     1      -5.532 -10.199 -43.379  1.00  0.00    -0.070 C 
ATOM     15  C   UNL     1      -5.008  -9.131 -44.214  1.00  0.00     0.026 A 
ATOM     16  C   UNL     1      -5.839  -8.100 -44.546  1.00  0.00     0.017 A 
ATOM     17  C   UNL     1      -3.684  -9.181 -44.650  1.00  0.00     0.043 A 
ATOM     18  C   UNL     1      -5.350  -7.072 -45.341  1.00  0.00     0.003 A 
ATOM     19  C   UNL     1      -4.041  -7.145 -45.759  1.00  0.00     0.026 A 
ATOM     20  C   UNL     1      -5.962 -11.088 -42.686  1.00  0.00     0.010 C 
ENDBRANCH  11  13
ENDBRANCH   1  11
BRANCH   8  21
ATOM     21  O   UNL     1       2.393 -10.498 -44.390  1.00  0.00    -0.487 OA
BRANCH  21  22
ATOM     22  C   UNL     1       1.390 -11.487 -44.429  1.00  0.00     0.258 C 
BRANCH  22  23
ATOM     23  C   UNL     1       1.847 -12.642 -45.333  1.00  0.00     0.201 C 
BRANCH  23  24
ATOM     24  O   UNL     1       1.589 -12.261 -46.650  1.00  0.00    -0.381 OA
ATOM     25  C   UNL     1       0.333 -12.696 -47.013  1.00  0.00     0.195 C 
ENDBRANCH  23  24
ENDBRANCH  22  23
ENDBRANCH  21  22
ENDBRANCH   8  21
BRANCH   7  26
ATOM     26  O   UNL     1       4.179  -8.623 -43.718  1.00  0.00    -0.487 OA
BRANCH  26  27
ATOM     27  C   UNL     1       5.265  -7.834 -43.350  1.00  0.00     0.258 C 
BRANCH  27  28
ATOM     28  C   UNL     1       6.254  -7.534 -44.438  1.00  0.00     0.201 C 
BRANCH  28  29
ATOM     29  O   UNL     1       6.616  -6.197 -44.460  1.00  0.00    -0.381 OA
ATOM     30  C   UNL     1       6.111  -5.566 -45.576  1.00  0.00     0.195 C 
ENDBRANCH  28  29
ENDBRANCH  27  28
ENDBRANCH  26  27
ENDBRANCH   7  26
TORSDOF 10
ENDMDL
MODEL 6
REMARK minimizedAffinity -6.82713461
REMARK minimizedRMSD -1
REMARK SMILES C#Cc1cccc(Nc2ncnc3cc(OCCOC)c(OCCOC)cc23)c1
REMARK SMILES IDX 9 1 10 2 11 3 12 4 13 5 14 6 15 7 21 8 27 9 28 10 8 11 7 13
REMARK SMILES IDX 2 14 3 15 4 16 29 17 5 18 6 19 1 20 22 21 23 22 24 23 25 24
REMARK SMILES IDX 26 25 16 26 17 27 18 28 19 29 20 30
REMARK H PARENT 8 12
ROOT
ATOM      1  C   UNL     1      -0.163 -10.270 -45.632  1.00  0.00     0.141 A 
ATOM      2  N   UNL     1       0.357  -9.325 -44.837  1.00  0.00    -0.219 NA
ATOM      3  C   UNL     1       1.520  -9.407 -44.177  1.00  0.00     0.224 A 
ATOM      4  N   UNL     1       2.251 -10.526 -44.304  1.00  0.00    -0.236 NA
ATOM      5  C   UNL     1       1.801 -11.522 -45.082  1.00  0.00     0.080 A 
ATOM      6  C   UNL     1       2.586 -12.665 -45.188  1.00  0.00     0.079 A 
ATOM      7  C   UNL     1       2.234 -13.750 -45.950  1.00  0.00     0.163 A 
ATOM      8  C   UNL     1       1.006 -13.626 -46.630  1.00  0.00     0.162 A 
ATOM      9  C   UNL     1       0.227 -12.496 -46.528  1.00  0.00     0.064 A 
ATOM     10  C   UNL     1       0.585 -11.430 -45.770  1.00  0.00     0.047 A 
ENDROOT
BRANCH   1  11
ATOM     11  N   UNL     1      -1.399 -10.146 -46.315  1.00  0.00    -0.340 N 
ATOM     12  H   UNL     1      -1.510 -10.501 -47.296  1.00  0.00     0.168 HD
BRANCH  11  13
ATOM     13  C   UNL     1      -2.569  -9.549 -45.760  1.00  0.00     0.041 A 
ATOM     14  C   UNL     1      -5.288 -10.153 -43.283  1.00  0.00    -0.070 C 
ATOM     15  C   UNL     1      -4.472  -9.504 -44.296  1.00  0.00     0.026 A 
ATOM     16  C   UNL     1      -4.838  -8.260 -44.723  1.00  0.00     0.017 A 
ATOM     17  C   UNL     1      -3.348 -10.157 -44.801  1.00  0.00     0.043 A 
ATOM     18  C   UNL     1      -4.066  -7.628 -45.689  1.00  0.00     0.003 A 
ATOM     19  C   UNL     1      -2.963  -8.294 -46.172  1.00  0.00     0.026 A 
ATOM     20  C   UNL     1      -5.961 -10.696 -42.441  1.00  0.00     0.010 C 
ENDBRANCH  11  13
ENDBRANCH   1  11
BRANCH   8  21
ATOM     21  O   UNL     1       0.582 -14.682 -47.424  1.00  0.00    -0.487 OA
BRANCH  21  22
ATOM     22  C   UNL     1      -0.594 -15.378 -47.078  1.00  0.00     0.258 C 
BRANCH  22  23
ATOM     23  C   UNL     1      -0.315 -16.279 -45.865  1.00  0.00     0.201 C 
BRANCH  23  24
ATOM     24  O   UNL     1      -1.011 -15.739 -44.783  1.00  0.00    -0.381 OA
ATOM     25  C   UNL     1      -0.170 -15.655 -43.695  1.00  0.00     0.195 C 
ENDBRANCH  23  24
ENDBRANCH  22  23
ENDBRANCH  21  22
ENDBRANCH   8  21
BRANCH   7  26
ATOM     26  O   UNL     1       2.908 -14.902 -46.121  1.00  0.00    -0.487 OA
BRANCH  26  27
ATOM     27  C   UNL     1       4.082 -15.274 -45.472  1.00  0.00     0.258 C 
BRANCH  27  28
ATOM     28  C   UNL     1       5.347 -15.099 -46.259  1.00  0.00     0.201 C 
BRANCH  28  29
ATOM     29  O   UNL     1       6.026 -13.944 -45.905  1.00  0.00    -0.381 OA
ATOM     30  C   UNL     1       6.638 -14.086 -44.679  1.00  0.00     0.195 C 
ENDBRANCH  28  29
ENDBRANCH  27  28
ENDBRANCH  26  27
ENDBRANCH   7  26
TORSDOF 10
ENDMDL
MODEL 7
REMARK minimizedAffinity -6.82073927
REMARK minimizedRMSD -1
REMARK SMILES C#Cc1cccc(Nc2ncnc3cc(OCCOC)c(OCCOC)cc23)c1
REMARK SMILES IDX 9 1 10 2 11 3 12 4 13 5 14 6 15 7 21 8 27 9 28 10 8 11 7 13
REMARK SMILES IDX 2 14 3 15 4 16 29 17 5 18 6 19 1 20 22 21 23 22 24 23 25 24
REMARK SMILES IDX 26 25 16 26 17 27 18 28 19 29 20 30
REMARK H PARENT 8 12
ROOT
ATOM      1  C   UNL     1       2.362  -9.841 -45.547  1.00  0.00     0.141 A 
ATOM      2  N   UNL     1       2.787 -11.071 -45.870  1.00  0.00    -0.219 NA
ATOM      3  C   UNL     1       2.033 -12.178 -45.904  1.00  0.00     0.224 A 
ATOM      4  N   UNL     1       0.732 -12.076 -45.588  1.00  0.00    -0.236 NA
ATOM      5  C   UNL     1       0.226 -10.880 -45.253  1.00  0.00     0.080 A 
ATOM      6  C   UNL     1      -1.125 -10.815 -44.932  1.00  0.00     0.079 A 
ATOM      7  C   UNL     1      -1.757  -9.652 -44.572  1.00  0.00     0.163 A 
ATOM      8  C   UNL     1      -0.932  -8.510 -44.549  1.00  0.00     0.162 A 
ATOM      9  C   UNL     1       0.406  -8.570 -44.867  1.00  0.00     0.064 A 
ATOM     10  C   UNL     1       1.020  -9.726 -45.220  1.00  0.00     0.047 A 
ENDROOT
BRANCH   1  11
ATOM     11  N   UNL     1       3.193  -8.692 -45.523  1.00  0.00    -0.340 N 
ATOM     12  H   UNL     1       3.199  -8.017 -46.325  1.00  0.00     0.168 HD
BRANCH  11  13
ATOM     13  C   UNL     1       4.068  -8.354 -44.450  1.00  0.00     0.041 A 
ATOM     14  C   UNL     1       4.135  -6.667 -41.127  1.00  0.00    -0.070 C 
ATOM     15  C   UNL     1       4.574  -7.387 -42.310  1.00  0.00     0.026 A 
ATOM     16  C   UNL     1       5.883  -7.769 -42.389  1.00  0.00     0.017 A 
ATOM     17  C   UNL     1       3.661  -7.671 -43.326  1.00  0.00     0.043 A 
ATOM     18  C   UNL     1       6.315  -8.460 -43.513  1.00  0.00     0.003 A 
ATOM     19  C   UNL     1       5.395  -8.726 -44.500  1.00  0.00     0.026 A 
ATOM     20  C   UNL     1       3.765  -6.069 -40.146  1.00  0.00     0.010 C 
ENDBRANCH  11  13
ENDBRANCH   1  11
BRANCH   8  21
ATOM     21  O   UNL     1      -1.499  -7.293 -44.197  1.00  0.00    -0.487 OA
BRANCH  21  22
ATOM     22  C   UNL     1      -1.573  -6.262 -45.154  1.00  0.00     0.258 C 
BRANCH  22  23
ATOM     23  C   UNL     1      -1.839  -4.926 -44.444  1.00  0.00     0.201 C 
BRANCH  23  24
ATOM     24  O   UNL     1      -2.983  -5.095 -43.663  1.00  0.00    -0.381 OA
ATOM     25  C   UNL     1      -4.086  -5.194 -44.482  1.00  0.00     0.195 C 
ENDBRANCH  23  24
ENDBRANCH  22  23
ENDBRANCH  21  22
ENDBRANCH   8  21
BRANCH   7  26
ATOM     26  O   UNL     1      -3.048  -9.474 -44.239  1.00  0.00    -0.487 OA
BRANCH  26  27
ATOM     27  C   UNL     1      -3.607  -9.660 -42.978  1.00  0.00     0.258 C 
BRANCH  27  28
ATOM     28  C   UNL     1      -4.992  -9.115 -42.789  1.00  0.00     0.201 C 
BRANCH  28  29
ATOM     29  O   UNL     1      -5.955  -9.925 -43.368  1.00  0.00    -0.381 OA
ATOM     30  C   UNL     1      -5.733 -11.250 -43.065  1.00  0.00     0.195 C 
ENDBRANCH  28  29
ENDBRANCH  27  28
ENDBRANCH  26  27
ENDBRANCH   7  26
TORSDOF 10
ENDMDL
MODEL 8
REMARK minimizedAffinity -6.74854183
REMARK minimizedRMSD -1
REMARK SMILES C#Cc1cccc(Nc2ncnc3cc(OCCOC)c(OCCOC)cc23)c1
REMARK SMILES IDX 9 1 10 2 11 3 12 4 13 5 14 6 15 7 21 8 27 9 28 10 8 11 7 13
REMARK SMILES IDX 2 14 3 15 4 16 29 17 5 18 6 19 1 20 22 21 23 22 24 23 25 24
REMARK SMILES IDX 26 25 16 26 17 27 18 28 19 29 20 30
REMARK H PARENT 8 12
ROOT
ATOM      1  C   UNL     1      -0.286 -11.458 -44.508  1.00  0.00     0.141 A 
ATOM      2  N   UNL     1      -0.410 -12.651 -45.104  1.00  0.00    -0.219 NA
ATOM      3  C   UNL     1       0.523 -13.256 -45.852  1.00  0.00     0.224 A 
ATOM      4  N   UNL     1       1.697 -12.630 -46.039  1.00  0.00    -0.236 NA
ATOM      5  C   UNL     1       1.902 -11.430 -45.477  1.00  0.00     0.080 A 
ATOM      6  C   UNL     1       3.130 -10.814 -45.694  1.00  0.00     0.079 A 
ATOM      7  C   UNL     1       3.458  -9.588 -45.174  1.00  0.00     0.163 A 
ATOM      8  C   UNL     1       2.452  -8.986 -44.393  1.00  0.00     0.162 A 
ATOM      9  C   UNL     1       1.236  -9.592 -44.175  1.00  0.00     0.064 A 
ATOM     10  C   UNL     1       0.923 -10.805 -44.695  1.00  0.00     0.047 A 
ENDROOT
BRANCH   1  11
ATOM     11  N   UNL     1      -1.299 -10.850 -43.723  1.00  0.00    -0.340 N 
ATOM     12  H   UNL     1      -1.375 -11.049 -42.696  1.00  0.00     0.168 HD
BRANCH  11  13
ATOM     13  C   UNL     1      -2.277  -9.946 -44.230  1.00  0.00     0.041 A 
ATOM     14  C   UNL     1      -5.129  -7.795 -43.165  1.00  0.00    -0.070 C 
ATOM     15  C   UNL     1      -4.138  -8.444 -44.007  1.00  0.00     0.026 A 
ATOM     16  C   UNL     1      -4.138  -8.162 -45.343  1.00  0.00     0.017 A 
ATOM     17  C   UNL     1      -3.220  -9.328 -43.440  1.00  0.00     0.043 A 
ATOM     18  C   UNL     1      -3.195  -8.773 -46.159  1.00  0.00     0.003 A 
ATOM     19  C   UNL     1      -2.302  -9.641 -45.575  1.00  0.00     0.026 A 
ATOM     20  C   UNL     1      -5.949  -7.258 -42.460  1.00  0.00     0.010 C 
ENDBRANCH  11  13
ENDBRANCH   1  11
BRANCH   8  21
ATOM     21  O   UNL     1       2.709  -7.744 -43.830  1.00  0.00    -0.487 OA
BRANCH  21  22
ATOM     22  C   UNL     1       2.166  -6.588 -44.427  1.00  0.00     0.258 C 
BRANCH  22  23
ATOM     23  C   UNL     1       3.010  -5.366 -44.033  1.00  0.00     0.201 C 
BRANCH  23  24
ATOM     24  O   UNL     1       4.348  -5.704 -44.243  1.00  0.00    -0.381 OA
ATOM     25  C   UNL     1       4.710  -5.355 -45.526  1.00  0.00     0.195 C 
ENDBRANCH  23  24
ENDBRANCH  22  23
ENDBRANCH  21  22
ENDBRANCH   8  21
BRANCH   7  26
ATOM     26  O   UNL     1       4.605  -8.901 -45.321  1.00  0.00    -0.487 OA
BRANCH  26  27
ATOM     27  C   UNL     1       5.740  -9.010 -44.523  1.00  0.00     0.258 C 
BRANCH  27  28
ATOM     28  C   UNL     1       6.659 -10.151 -44.847  1.00  0.00     0.201 C 
BRANCH  28  29
ATOM     29  O   UNL     1       6.357 -11.288 -44.117  1.00  0.00    -0.381 OA
ATOM     30  C   UNL     1       6.419 -12.415 -44.907  1.00  0.00     0.195 C 
ENDBRANCH  28  29
ENDBRANCH  27  28
ENDBRANCH  26  27
ENDBRANCH   7  26
TORSDOF 10
ENDMDL
MODEL 9
REMARK minimizedAffinity -6.7473197
REMARK minimizedRMSD -1
REMARK SMILES C#Cc1cccc(Nc2ncnc3cc(OCCOC)c(OCCOC)cc23)c1
REMARK SMILES IDX 9 1 10 2 11 3 12 4 13 5 14 6 15 7 21 8 27 9 28 10 8 11 7 13
REMARK SMILES IDX 2 14 3 15 4 16 29 17 5 18 6 19 1 20 22 21 23 22 24 23 25 24
REMARK SMILES IDX 26 25 16 26 17 27 18 28 19 29 20 30
REMARK H PARENT 8 12
ROOT
ATOM      1  C   UNL     1      -0.274 -18.436 -41.889  1.00  0.00     0.141 A 
ATOM      2  N   UNL     1      -1.159 -19.440 -41.950  1.00  0.00    -0.219 NA
ATOM      3  C   UNL     1      -0.878 -20.743 -41.818  1.00  0.00     0.224 A 
ATOM      4  N   UNL     1       0.398 -21.104 -41.605  1.00  0.00    -0.236 NA
ATOM      5  C   UNL     1       1.347 -20.160 -41.531  1.00  0.00     0.080 A 
ATOM      6  C   UNL     1       2.656 -20.574 -41.311  1.00  0.00     0.079 A 
ATOM      7  C   UNL     1       3.713 -19.704 -41.216  1.00  0.00     0.163 A 
ATOM      8  C   UNL     1       3.377 -18.343 -41.360  1.00  0.00     0.162 A 
ATOM      9  C   UNL     1       2.083 -17.930 -41.578  1.00  0.00     0.064 A 
ATOM     10  C   UNL     1       1.047 -18.799 -41.670  1.00  0.00     0.047 A 
ENDROOT
BRANCH   1  11
ATOM     11  N   UNL     1      -0.611 -17.066 -42.035  1.00  0.00    -0.340 N 
ATOM     12  H   UNL     1      -1.068 -16.539 -41.253  1.00  0.00     0.168 HD
BRANCH  11  13
ATOM     13  C   UNL     1      -0.372 -16.299 -43.213  1.00  0.00     0.041 A 
ATOM     14  C   UNL     1       1.178 -13.121 -44.391  1.00  0.00    -0.070 C 
ATOM     15  C   UNL     1       0.488 -14.399 -44.405  1.00  0.00     0.026 A 
ATOM     16  C   UNL     1       0.063 -14.894 -45.605  1.00  0.00     0.017 A 
ATOM     17  C   UNL     1       0.280 -15.086 -43.209  1.00  0.00     0.043 A 
ATOM     18  C   UNL     1      -0.596 -16.116 -45.632  1.00  0.00     0.003 A 
ATOM     19  C   UNL     1      -0.790 -16.772 -44.439  1.00  0.00     0.026 A 
ATOM     20  C   UNL     1       1.752 -12.059 -44.373  1.00  0.00     0.010 C 
ENDBRANCH  11  13
ENDBRANCH   1  11
BRANCH   8  21
ATOM     21  O   UNL     1       4.393 -17.401 -41.275  1.00  0.00    -0.487 OA
BRANCH  21  22
ATOM     22  C   UNL     1       4.627 -16.537 -42.364  1.00  0.00     0.258 C 
BRANCH  22  23
ATOM     23  C   UNL     1       5.977 -15.828 -42.171  1.00  0.00     0.201 C 
BRANCH  23  24
ATOM     24  O   UNL     1       5.918 -14.630 -42.884  1.00  0.00    -0.381 OA
ATOM     25  C   UNL     1       4.622 -14.407 -43.296  1.00  0.00     0.195 C 
ENDBRANCH  23  24
ENDBRANCH  22  23
ENDBRANCH  21  22
ENDBRANCH   8  21
BRANCH   7  26
ATOM     26  O   UNL     1       5.011 -19.990 -41.011  1.00  0.00    -0.487 OA
BRANCH  26  27
ATOM     27  C   UNL     1       5.988 -20.137 -41.993  1.00  0.00     0.258 C 
BRANCH  27  28
ATOM     28  C   UNL     1       5.765 -21.249 -42.975  1.00  0.00     0.201 C 
BRANCH  28  29
ATOM     29  O   UNL     1       6.099 -20.878 -44.267  1.00  0.00    -0.381 OA
ATOM     30  C   UNL     1       5.776 -19.560 -44.503  1.00  0.00     0.195 C 
ENDBRANCH  28  29
ENDBRANCH  27  28
ENDBRANCH  26  27
ENDBRANCH   7  26
TORSDOF 10
ENDMDL
MODEL 10
REMARK minimizedAffinity -6.7388401
REMARK minimizedRMSD -1
REMARK SMILES C#Cc1cccc(Nc2ncnc3cc(OCCOC)c(OCCOC)cc23)c1
REMARK SMILES IDX 9 1 10 2 11 3 12 4 13 5 14 6 15 7 21 8 27 9 28 10 8 11 7 13
REMARK SMILES IDX 2 14 3 15 4 16 29 17 5 18 6 19 1 20 22 21 23 22 24 23 25 24
REMARK SMILES IDX 26 25 16 26 17 27 18 28 19 29 20 30
REMARK H PARENT 8 12
ROOT
ATOM      1  C   UNL     1       1.453  -7.404 -45.632  1.00  0.00     0.141 A 
ATOM      2  N   UNL     1       1.138  -6.127 -45.888  1.00  0.00    -0.219 NA
ATOM      3  C   UNL     1      -0.094  -5.601 -45.865  1.00  0.00     0.224 A 
ATOM      4  N   UNL     1      -1.126  -6.405 -45.560  1.00  0.00    -0.236 NA
ATOM      5  C   UNL     1      -0.898  -7.698 -45.291  1.00  0.00     0.080 A 
ATOM      6  C   UNL     1      -1.993  -8.498 -44.981  1.00  0.00     0.079 A 
ATOM      7  C   UNL     1      -1.888  -9.835 -44.689  1.00  0.00     0.163 A 
ATOM      8  C   UNL     1      -0.577 -10.349 -44.723  1.00  0.00     0.162 A 
ATOM      9  C   UNL     1       0.508  -9.561 -45.028  1.00  0.00     0.064 A 
ATOM     10  C   UNL     1       0.392  -8.241 -45.317  1.00  0.00     0.047 A 
ENDROOT
BRANCH   1  11
ATOM     11  N   UNL     1       2.772  -7.924 -45.668  1.00  0.00    -0.340 N 
ATOM     12  H   UNL     1       3.132  -8.417 -46.520  1.00  0.00     0.168 HD
BRANCH  11  13
ATOM     13  C   UNL     1       3.702  -7.833 -44.592  1.00  0.00     0.041 A 
ATOM     14  C   UNL     1       4.059  -6.550 -41.110  1.00  0.00    -0.070 C 
ATOM     15  C   UNL     1       4.373  -7.190 -42.377  1.00  0.00     0.026 A 
ATOM     16  C   UNL     1       5.612  -7.741 -42.535  1.00  0.00     0.017 A 
ATOM     17  C   UNL     1       3.414  -7.228 -43.389  1.00  0.00     0.043 A 
ATOM     18  C   UNL     1       5.924  -8.357 -43.740  1.00  0.00     0.003 A 
ATOM     19  C   UNL     1       4.961  -8.380 -44.722  1.00  0.00     0.026 A 
ATOM     20  C   UNL     1       3.792  -6.019 -40.060  1.00  0.00     0.010 C 
ENDBRANCH  11  13
ENDBRANCH   1  11
BRANCH   8  21
ATOM     21  O   UNL     1      -0.389 -11.694 -44.436  1.00  0.00    -0.487 OA
BRANCH  21  22
ATOM     22  C   UNL     1       0.605 -12.071 -43.510  1.00  0.00     0.258 C 
BRANCH  22  23
ATOM     23  C   UNL     1       1.016 -13.529 -43.769  1.00  0.00     0.201 C 
BRANCH  23  24
ATOM     24  O   UNL     1      -0.093 -14.179 -44.310  1.00  0.00    -0.381 OA
ATOM     25  C   UNL     1      -0.254 -15.399 -43.690  1.00  0.00     0.195 C 
ENDBRANCH  23  24
ENDBRANCH  22  23
ENDBRANCH  21  22
ENDBRANCH   8  21
BRANCH   7  26
ATOM     26  O   UNL     1      -2.872 -10.700 -44.382  1.00  0.00    -0.487 OA
BRANCH  26  27
ATOM     27  C   UNL     1      -4.160 -10.370 -43.969  1.00  0.00     0.258 C 
BRANCH  27  28
ATOM     28  C   UNL     1      -4.312 -10.020 -42.518  1.00  0.00     0.201 C 
BRANCH  28  29
ATOM     29  O   UNL     1      -5.327  -9.101 -42.307  1.00  0.00    -0.381 OA
ATOM     30  C   UNL     1      -4.901  -7.821 -42.587  1.00  0.00     0.195 C 
ENDBRANCH  28  29
ENDBRANCH  27  28
ENDBRANCH  26  27
ENDBRANCH   7  26
TORSDOF 10
ENDMDL
MODEL 11
REMARK minimizedAffinity -6.71831608
REMARK minimizedRMSD -1
REMARK SMILES C#Cc1cccc(Nc2ncnc3cc(OCCOC)c(OCCOC)cc23)c1
REMARK SMILES IDX 9 1 10 2 11 3 12 4 13 5 14 6 15 7 21 8 27 9 28 10 8 11 7 13
REMARK SMILES IDX 2 14 3 15 4 16 29 17 5 18 6 19 1 20 22 21 23 22 24 23 25 24
REMARK SMILES IDX 26 25 16 26 17 27 18 28 19 29 20 30
REMARK H PARENT 8 12
ROOT
ATOM      1  C   UNL     1       1.656 -11.936 -44.081  1.00  0.00     0.141 A 
ATOM      2  N   UNL     1       2.847 -11.894 -44.693  1.00  0.00    -0.219 NA
ATOM      3  C   UNL     1       3.326 -10.868 -45.409  1.00  0.00     0.224 A 
ATOM      4  N   UNL     1       2.562  -9.771 -45.545  1.00  0.00    -0.236 NA
ATOM      5  C   UNL     1       1.354  -9.732 -44.964  1.00  0.00     0.080 A 
ATOM      6  C   UNL     1       0.594  -8.580 -45.128  1.00  0.00     0.079 A 
ATOM      7  C   UNL     1      -0.656  -8.421 -44.584  1.00  0.00     0.163 A 
ATOM      8  C   UNL     1      -1.123  -9.520 -43.837  1.00  0.00     0.162 A 
ATOM      9  C   UNL     1      -0.373 -10.662 -43.673  1.00  0.00     0.064 A 
ATOM     10  C   UNL     1       0.861 -10.808 -44.216  1.00  0.00     0.047 A 
ENDROOT
BRANCH   1  11
ATOM     11  N   UNL     1       1.184 -13.043 -43.330  1.00  0.00    -0.340 N 
ATOM     12  H   UNL     1       1.275 -13.062 -42.286  1.00  0.00     0.168 HD
BRANCH  11  13
ATOM     13  C   UNL     1       0.566 -14.196 -43.897  1.00  0.00     0.041 A 
ATOM     14  C   UNL     1      -0.985 -17.457 -42.973  1.00  0.00    -0.070 C 
ATOM     15  C   UNL     1      -0.501 -16.344 -43.773  1.00  0.00     0.026 A 
ATOM     16  C   UNL     1      -0.660 -16.402 -45.128  1.00  0.00     0.017 A 
ATOM     17  C   UNL     1       0.106 -15.255 -43.147  1.00  0.00     0.043 A 
ATOM     18  C   UNL     1      -0.203 -15.344 -45.904  1.00  0.00     0.003 A 
ATOM     19  C   UNL     1       0.392 -14.283 -45.262  1.00  0.00     0.026 A 
ATOM     20  C   UNL     1      -1.386 -18.378 -42.304  1.00  0.00     0.010 C 
ENDBRANCH  11  13
ENDBRANCH   1  11
BRANCH   8  21
ATOM     21  O   UNL     1      -2.379  -9.435 -43.253  1.00  0.00    -0.487 OA
BRANCH  21  22
ATOM     22  C   UNL     1      -3.492  -9.979 -43.925  1.00  0.00     0.258 C 
BRANCH  22  23
ATOM     23  C   UNL     1      -4.773  -9.286 -43.435  1.00  0.00     0.201 C 
BRANCH  23  24
ATOM     24  O   UNL     1      -5.384 -10.148 -42.523  1.00  0.00    -0.381 OA
ATOM     25  C   UNL     1      -5.691 -11.335 -43.151  1.00  0.00     0.195 C 
ENDBRANCH  23  24
ENDBRANCH  22  23
ENDBRANCH  21  22
ENDBRANCH   8  21
BRANCH   7  26
ATOM     26  O   UNL     1      -1.477  -7.360 -44.681  1.00  0.00    -0.487 OA
BRANCH  26  27
ATOM     27  C   UNL     1      -2.131  -6.926 -45.831  1.00  0.00     0.258 C 
BRANCH  27  28
ATOM     28  C   UNL     1      -3.576  -6.558 -45.662  1.00  0.00     0.201 C 
BRANCH  28  29
ATOM     29  O   UNL     1      -3.733  -5.364 -44.976  1.00  0.00    -0.381 OA
ATOM     30  C   UNL     1      -4.465  -5.549 -43.823  1.00  0.00     0.195 C 
ENDBRANCH  28  29
ENDBRANCH  27  28
ENDBRANCH  26  27
ENDBRANCH   7  26
TORSDOF 10
ENDMDL
MODEL 12
REMARK minimizedAffinity -6.70346117
REMARK minimizedRMSD -1
REMARK SMILES C#Cc1cccc(Nc2ncnc3cc(OCCOC)c(OCCOC)cc23)c1
REMARK SMILES IDX 9 1 10 2 11 3 12 4 13 5 14 6 15 7 21 8 27 9 28 10 8 11 7 13
REMARK SMILES IDX 2 14 3 15 4 16 29 17 5 18 6 19 1 20 22 21 23 22 24 23 25 24
REMARK SMILES IDX 26 25 16 26 17 27 18 28 19 29 20 30
REMARK H PARENT 8 12
ROOT
ATOM      1  C   UNL     1       0.098 -10.778 -43.720  1.00  0.00     0.141 A 
ATOM      2  N   UNL     1      -0.225 -12.078 -43.746  1.00  0.00    -0.219 NA
ATOM      3  C   UNL     1       0.479 -13.051 -44.340  1.00  0.00     0.224 A 
ATOM      4  N   UNL     1       1.615 -12.720 -44.977  1.00  0.00    -0.236 NA
ATOM      5  C   UNL     1       2.010 -11.439 -44.999  1.00  0.00     0.080 A 
ATOM      6  C   UNL     1       3.190 -11.136 -45.669  1.00  0.00     0.079 A 
ATOM      7  C   UNL     1       3.697  -9.865 -45.763  1.00  0.00     0.163 A 
ATOM      8  C   UNL     1       2.928  -8.871 -45.124  1.00  0.00     0.162 A 
ATOM      9  C   UNL     1       1.760  -9.167 -44.460  1.00  0.00     0.064 A 
ATOM     10  C   UNL     1       1.269 -10.427 -44.375  1.00  0.00     0.047 A 
ENDROOT
BRANCH   1  11
ATOM     11  N   UNL     1      -0.676  -9.777 -43.079  1.00  0.00    -0.340 N 
ATOM     12  H   UNL     1      -0.397  -9.401 -42.141  1.00  0.00     0.168 HD
BRANCH  11  13
ATOM     13  C   UNL     1      -1.863  -9.205 -43.623  1.00  0.00     0.041 A 
ATOM     14  C   UNL     1      -3.191  -6.068 -45.138  1.00  0.00    -0.070 C 
ATOM     15  C   UNL     1      -3.127  -7.430 -44.633  1.00  0.00     0.026 A 
ATOM     16  C   UNL     1      -4.254  -8.199 -44.698  1.00  0.00     0.017 A 
ATOM     17  C   UNL     1      -1.932  -7.916 -44.103  1.00  0.00     0.043 A 
ATOM     18  C   UNL     1      -4.206  -9.502 -44.221  1.00  0.00     0.003 A 
ATOM     19  C   UNL     1      -3.016  -9.956 -43.702  1.00  0.00     0.026 A 
ATOM     20  C   UNL     1      -3.237  -4.937 -45.556  1.00  0.00     0.010 C 
ENDBRANCH  11  13
ENDBRANCH   1  11
BRANCH   8  21
ATOM     21  O   UNL     1       3.377  -7.559 -45.173  1.00  0.00    -0.487 OA
BRANCH  21  22
ATOM     22  C   UNL     1       4.107  -7.037 -44.086  1.00  0.00     0.258 C 
BRANCH  22  23
ATOM     23  C   UNL     1       3.263  -5.971 -43.370  1.00  0.00     0.201 C 
BRANCH  23  24
ATOM     24  O   UNL     1       3.694  -5.928 -42.043  1.00  0.00    -0.381 OA
ATOM     25  C   UNL     1       4.438  -7.054 -41.768  1.00  0.00     0.195 C 
ENDBRANCH  23  24
ENDBRANCH  22  23
ENDBRANCH  21  22
ENDBRANCH   8  21
BRANCH   7  26
ATOM     26  O   UNL     1       4.818  -9.459 -46.384  1.00  0.00    -0.487 OA
BRANCH  26  27
ATOM     27  C   UNL     1       6.125  -9.716 -45.979  1.00  0.00     0.258 C 
BRANCH  27  28
ATOM     28  C   UNL     1       7.185  -8.860 -46.607  1.00  0.00     0.201 C 
BRANCH  28  29
ATOM     29  O   UNL     1       8.113  -8.415 -45.679  1.00  0.00    -0.381 OA
ATOM     30  C   UNL     1       7.607  -8.487 -44.400  1.00  0.00     0.195 C 
ENDBRANCH  28  29
ENDBRANCH  27  28
ENDBRANCH  26  27
ENDBRANCH   7  26
TORSDOF 10
ENDMDL
MODEL 13
REMARK minimizedAffinity -6.61999559
REMARK minimizedRMSD -1
REMARK SMILES C#Cc1cccc(Nc2ncnc3cc(OCCOC)c(OCCOC)cc23)c1
REMARK SMILES IDX 9 1 10 2 11 3 12 4 13 5 14 6 15 7 21 8 27 9 28 10 8 11 7 13
REMARK SMILES IDX 2 14 3 15 4 16 29 17 5 18 6 19 1 20 22 21 23 22 24 23 25 24
REMARK SMILES IDX 26 25 16 26 17 27 18 28 19 29 20 30
REMARK H PARENT 8 12
ROOT
ATOM      1  C   UNL     1       0.410  -9.916 -43.969  1.00  0.00     0.141 A 
ATOM      2  N   UNL     1       1.179  -8.881 -44.331  1.00  0.00    -0.219 NA
ATOM      3  C   UNL     1       2.257  -8.943 -45.124  1.00  0.00     0.224 A 
ATOM      4  N   UNL     1       2.623 -10.139 -45.613  1.00  0.00    -0.236 NA
ATOM      5  C   UNL     1       1.907 -11.228 -45.298  1.00  0.00     0.080 A 
ATOM      6  C   UNL     1       2.318 -12.448 -45.823  1.00  0.00     0.079 A 
ATOM      7  C   UNL     1       1.670 -13.631 -45.573  1.00  0.00     0.163 A 
ATOM      8  C   UNL     1       0.541 -13.524 -44.737  1.00  0.00     0.162 A 
ATOM      9  C   UNL     1       0.131 -12.318 -44.216  1.00  0.00     0.064 A 
ATOM     10  C   UNL     1       0.781 -11.156 -44.469  1.00  0.00     0.047 A 
ENDROOT
BRANCH   1  11
ATOM     11  N   UNL     1      -0.725  -9.810 -43.125  1.00  0.00    -0.340 N 
ATOM     12  H   UNL     1      -0.690 -10.143 -42.132  1.00  0.00     0.168 HD
BRANCH  11  13
ATOM     13  C   UNL     1      -1.979  -9.264 -43.528  1.00  0.00     0.041 A 
ATOM     14  C   UNL     1      -3.600  -6.073 -44.568  1.00  0.00    -0.070 C 
ATOM     15  C   UNL     1      -3.417  -7.477 -44.239  1.00  0.00     0.026 A 
ATOM     16  C   UNL     1      -4.494  -8.311 -44.335  1.00  0.00     0.017 A 
ATOM     17  C   UNL     1      -2.162  -7.935 -43.840  1.00  0.00     0.043 A 
ATOM     18  C   UNL     1      -4.332  -9.655 -44.026  1.00  0.00     0.003 A 
ATOM     19  C   UNL     1      -3.085 -10.082 -43.634  1.00  0.00     0.026 A 
ATOM     20  C   UNL     1      -3.746  -4.906 -44.841  1.00  0.00     0.010 C 
ENDBRANCH  11  13
ENDBRANCH   1  11
BRANCH   8  21
ATOM     21  O   UNL     1      -0.170 -14.677 -44.439  1.00  0.00    -0.487 OA
BRANCH  21  22
ATOM     22  C   UNL     1       0.098 -15.364 -43.238  1.00  0.00     0.258 C 
BRANCH  22  23
ATOM     23  C   UNL     1      -0.785 -16.619 -43.159  1.00  0.00     0.201 C 
BRANCH  23  24
ATOM     24  O   UNL     1      -1.959 -16.340 -43.861  1.00  0.00    -0.381 OA
ATOM     25  C   UNL     1      -2.961 -17.179 -43.425  1.00  0.00     0.195 C 
ENDBRANCH  23  24
ENDBRANCH  22  23
ENDBRANCH  21  22
ENDBRANCH   8  21
BRANCH   7  26
ATOM     26  O   UNL     1       1.979 -14.861 -46.021  1.00  0.00    -0.487 OA
BRANCH  26  27
ATOM     27  C   UNL     1       3.181 -15.533 -45.819  1.00  0.00     0.258 C 
BRANCH  27  28
ATOM     28  C   UNL     1       3.683 -15.565 -44.404  1.00  0.00     0.201 C 
BRANCH  28  29
ATOM     29  O   UNL     1       4.910 -14.936 -44.271  1.00  0.00    -0.381 OA
ATOM     30  C   UNL     1       5.061 -14.411 -43.007  1.00  0.00     0.195 C 
ENDBRANCH  28  29
ENDBRANCH  27  28
ENDBRANCH  26  27
ENDBRANCH   7  26
TORSDOF 10
ENDMDL
MODEL 14
REMARK minimizedAffinity -6.60166931
REMARK minimizedRMSD -1
REMARK SMILES C#Cc1cccc(Nc2ncnc3cc(OCCOC)c(OCCOC)cc23)c1
REMARK SMILES IDX 9 1 10 2 11 3 12 4 13 5 14 6 15 7 21 8 27 9 28 10 8 11 7 13
REMARK SMILES IDX 2 14 3 15 4 16 29 17 5 18 6 19 1 20 22 21 23 22 24 23 25 24
REMARK SMILES IDX 26 25 16 26 17 27 18 28 19 29 20 30
REMARK H PARENT 8 12
ROOT
ATOM      1  C   UNL     1      -1.330 -10.357 -45.282  1.00  0.00     0.141 A 
ATOM      2  N   UNL     1      -1.021 -11.655 -45.160  1.00  0.00    -0.219 NA
ATOM      3  C   UNL     1       0.187 -12.149 -44.854  1.00  0.00     0.224 A 
ATOM      4  N   UNL     1       1.196 -11.288 -44.646  1.00  0.00    -0.236 NA
ATOM      5  C   UNL     1       0.971  -9.970 -44.750  1.00  0.00     0.080 A 
ATOM      6  C   UNL     1       2.042  -9.111 -44.529  1.00  0.00     0.079 A 
ATOM      7  C   UNL     1       1.938  -7.745 -44.607  1.00  0.00     0.163 A 
ATOM      8  C   UNL     1       0.653  -7.265 -44.930  1.00  0.00     0.162 A 
ATOM      9  C   UNL     1      -0.409  -8.112 -45.149  1.00  0.00     0.064 A 
ATOM     10  C   UNL     1      -0.293  -9.460 -45.070  1.00  0.00     0.047 A 
ENDROOT
BRANCH   1  11
ATOM     11  N   UNL     1      -2.622  -9.873 -45.609  1.00  0.00    -0.340 N 
ATOM     12  H   UNL     1      -2.877  -9.647 -46.601  1.00  0.00     0.168 HD
BRANCH  11  13
ATOM     13  C   UNL     1      -3.663  -9.651 -44.660  1.00  0.00     0.041 A 
ATOM     14  C   UNL     1      -5.583  -6.933 -42.981  1.00  0.00    -0.070 C 
ATOM     15  C   UNL     1      -5.131  -8.260 -43.364  1.00  0.00     0.026 A 
ATOM     16  C   UNL     1      -5.742  -9.342 -42.799  1.00  0.00     0.017 A 
ATOM     17  C   UNL     1      -4.097  -8.398 -44.291  1.00  0.00     0.043 A 
ATOM     18  C   UNL     1      -5.321 -10.615 -43.158  1.00  0.00     0.003 A 
ATOM     19  C   UNL     1      -4.299 -10.724 -44.072  1.00  0.00     0.026 A 
ATOM     20  C   UNL     1      -5.955  -5.828 -42.667  1.00  0.00     0.010 C 
ENDBRANCH  11  13
ENDBRANCH   1  11
BRANCH   8  21
ATOM     21  O   UNL     1       0.467  -5.893 -45.026  1.00  0.00    -0.487 OA
BRANCH  21  22
ATOM     22  C   UNL     1      -0.836  -5.382 -45.194  1.00  0.00     0.258 C 
BRANCH  22  23
ATOM     23  C   UNL     1      -1.344  -4.828 -43.854  1.00  0.00     0.201 C 
BRANCH  23  24
ATOM     24  O   UNL     1      -2.723  -5.037 -43.818  1.00  0.00    -0.381 OA
ATOM     25  C   UNL     1      -3.263  -4.728 -45.047  1.00  0.00     0.195 C 
ENDBRANCH  23  24
ENDBRANCH  22  23
ENDBRANCH  21  22
ENDBRANCH   8  21
BRANCH   7  26
ATOM     26  O   UNL     1       2.900  -6.824 -44.419  1.00  0.00    -0.487 OA
BRANCH  26  27
ATOM     27  C   UNL     1       4.273  -7.052 -44.435  1.00  0.00     0.258 C 
BRANCH  27  28
ATOM     28  C   UNL     1       5.069  -6.187 -45.368  1.00  0.00     0.201 C 
BRANCH  28  29
ATOM     29  O   UNL     1       6.280  -5.802 -44.816  1.00  0.00    -0.381 OA
ATOM     30  C   UNL     1       7.180  -6.845 -44.823  1.00  0.00     0.195 C 
ENDBRANCH  28  29
ENDBRANCH  27  28
ENDBRANCH  26  27
ENDBRANCH   7  26
TORSDOF 10
ENDMDL
MODEL 15
REMARK minimizedAffinity -6.59205627
REMARK minimizedRMSD -1
REMARK SMILES C#Cc1cccc(Nc2ncnc3cc(OCCOC)c(OCCOC)cc23)c1
REMARK SMILES IDX 9 1 10 2 11 3 12 4 13 5 14 6 15 7 21 8 27 9 28 10 8 11 7 13
REMARK SMILES IDX 2 14 3 15 4 16 29 17 5 18 6 19 1 20 22 21 23 22 24 23 25 24
REMARK SMILES IDX 26 25 16 26 17 27 18 28 19 29 20 30
REMARK H PARENT 8 12
ROOT
ATOM      1  C   UNL     1       1.322 -18.583 -41.368  1.00  0.00     0.141 A 
ATOM      2  N   UNL     1       0.882 -19.767 -40.922  1.00  0.00    -0.219 NA
ATOM      3  C   UNL     1       1.649 -20.799 -40.545  1.00  0.00     0.224 A 
ATOM      4  N   UNL     1       2.984 -20.661 -40.611  1.00  0.00    -0.236 NA
ATOM      5  C   UNL     1       3.507 -19.506 -41.048  1.00  0.00     0.080 A 
ATOM      6  C   UNL     1       4.893 -19.403 -41.102  1.00  0.00     0.079 A 
ATOM      7  C   UNL     1       5.546 -18.275 -41.531  1.00  0.00     0.163 A 
ATOM      8  C   UNL     1       4.705 -17.213 -41.918  1.00  0.00     0.162 A 
ATOM      9  C   UNL     1       3.333 -17.311 -41.865  1.00  0.00     0.064 A 
ATOM     10  C   UNL     1       2.699 -18.432 -41.440  1.00  0.00     0.047 A 
ENDROOT
BRANCH   1  11
ATOM     11  N   UNL     1       0.477 -17.514 -41.759  1.00  0.00    -0.340 N 
ATOM     12  H   UNL     1       0.793 -16.518 -41.670  1.00  0.00     0.168 HD
BRANCH  11  13
ATOM     13  C   UNL     1      -0.836 -17.678 -42.290  1.00  0.00     0.041 A 
ATOM     14  C   UNL     1      -3.900 -19.775 -41.965  1.00  0.00    -0.070 C 
ATOM     15  C   UNL     1      -2.985 -18.743 -42.422  1.00  0.00     0.026 A 
ATOM     16  C   UNL     1      -3.409 -17.884 -43.395  1.00  0.00     0.017 A 
ATOM     17  C   UNL     1      -1.709 -18.653 -41.864  1.00  0.00     0.043 A 
ATOM     18  C   UNL     1      -2.545 -16.892 -43.839  1.00  0.00     0.003 A 
ATOM     19  C   UNL     1      -1.293 -16.825 -43.273  1.00  0.00     0.026 A 
ATOM     20  C   UNL     1      -4.656 -20.634 -41.581  1.00  0.00     0.010 C 
ENDBRANCH  11  13
ENDBRANCH   1  11
BRANCH   8  21
ATOM     21  O   UNL     1       5.291 -16.036 -42.362  1.00  0.00    -0.487 OA
BRANCH  21  22
ATOM     22  C   UNL     1       5.287 -15.739 -43.740  1.00  0.00     0.258 C 
BRANCH  22  23
ATOM     23  C   UNL     1       5.270 -14.214 -43.933  1.00  0.00     0.201 C 
BRANCH  23  24
ATOM     24  O   UNL     1       4.165 -13.723 -43.236  1.00  0.00    -0.381 OA
ATOM     25  C   UNL     1       3.037 -13.859 -44.015  1.00  0.00     0.195 C 
ENDBRANCH  23  24
ENDBRANCH  22  23
ENDBRANCH  21  22
ENDBRANCH   8  21
BRANCH   7  26
ATOM     26  O   UNL     1       6.871 -18.067 -41.630  1.00  0.00    -0.487 OA
BRANCH  26  27
ATOM     27  C   UNL     1       7.848 -19.043 -41.805  1.00  0.00     0.258 C 
BRANCH  27  28
ATOM     28  C   UNL     1       8.688 -19.350 -40.601  1.00  0.00     0.201 C 
BRANCH  28  29
ATOM     29  O   UNL     1       8.720 -20.707 -40.320  1.00  0.00    -0.381 OA
ATOM     30  C   UNL     1       9.696 -21.342 -41.055  1.00  0.00     0.195 C 
ENDBRANCH  28  29
ENDBRANCH  27  28
ENDBRANCH  26  27
ENDBRANCH   7  26
TORSDOF 10
ENDMDL
MODEL 16
REMARK minimizedAffinity -6.57065773
REMARK minimizedRMSD -1
REMARK SMILES C#Cc1cccc(Nc2ncnc3cc(OCCOC)c(OCCOC)cc23)c1
REMARK SMILES IDX 9 1 10 2 11 3 12 4 13 5 14 6 15 7 21 8 27 9 28 10 8 11 7 13
REMARK SMILES IDX 2 14 3 15 4 16 29 17 5 18 6 19 1 20 22 21 23 22 24 23 25 24
REMARK SMILES IDX 26 25 16 26 17 27 18 28 19 29 20 30
REMARK H PARENT 8 12
ROOT
ATOM      1  C   UNL     1       6.683 -16.605 -44.310  1.00  0.00     0.141 A 
ATOM      2  N   UNL     1       6.382 -17.160 -45.492  1.00  0.00    -0.219 NA
ATOM      3  C   UNL     1       5.986 -16.502 -46.591  1.00  0.00     0.224 A 
ATOM      4  N   UNL     1       5.870 -15.166 -46.528  1.00  0.00    -0.236 NA
ATOM      5  C   UNL     1       6.151 -14.532 -45.381  1.00  0.00     0.080 A 
ATOM      6  C   UNL     1       6.017 -13.148 -45.356  1.00  0.00     0.079 A 
ATOM      7  C   UNL     1       6.273 -12.388 -44.243  1.00  0.00     0.163 A 
ATOM      8  C   UNL     1       6.688 -13.116 -43.110  1.00  0.00     0.162 A 
ATOM      9  C   UNL     1       6.822 -14.485 -43.131  1.00  0.00     0.064 A 
ATOM     10  C   UNL     1       6.565 -15.225 -44.237  1.00  0.00     0.047 A 
ENDROOT
BRANCH   1  11
ATOM     11  N   UNL     1       7.099 -17.337 -43.169  1.00  0.00    -0.340 N 
ATOM     12  H   UNL     1       8.104 -17.602 -43.038  1.00  0.00     0.168 HD
BRANCH  11  13
ATOM     13  C   UNL     1       6.226 -17.769 -42.127  1.00  0.00     0.041 A 
ATOM     14  C   UNL     1       3.311 -19.996 -41.466  1.00  0.00    -0.070 C 
ATOM     15  C   UNL     1       4.393 -19.050 -41.250  1.00  0.00     0.026 A 
ATOM     16  C   UNL     1       4.591 -18.566 -39.989  1.00  0.00     0.017 A 
ATOM     17  C   UNL     1       5.198 -18.663 -42.322  1.00  0.00     0.043 A 
ATOM     18  C   UNL     1       5.622 -17.663 -39.769  1.00  0.00     0.003 A 
ATOM     19  C   UNL     1       6.400 -17.298 -40.843  1.00  0.00     0.026 A 
ATOM     20  C   UNL     1       2.414 -20.782 -41.650  1.00  0.00     0.010 C 
ENDBRANCH  11  13
ENDBRANCH   1  11
BRANCH   8  21
ATOM     21  O   UNL     1       6.969 -12.416 -41.944  1.00  0.00    -0.487 OA
BRANCH  21  22
ATOM     22  C   UNL     1       8.309 -12.269 -41.532  1.00  0.00     0.258 C 
BRANCH  22  23
ATOM     23  C   UNL     1       8.529 -13.049 -40.227  1.00  0.00     0.201 C 
BRANCH  23  24
ATOM     24  O   UNL     1       7.616 -12.557 -39.293  1.00  0.00    -0.381 OA
ATOM     25  C   UNL     1       7.478 -13.465 -38.266  1.00  0.00     0.195 C 
ENDBRANCH  23  24
ENDBRANCH  22  23
ENDBRANCH  21  22
ENDBRANCH   8  21
BRANCH   7  26
ATOM     26  O   UNL     1       6.174 -11.054 -44.104  1.00  0.00    -0.487 OA
BRANCH  26  27
ATOM     27  C   UNL     1       7.146 -10.115 -44.440  1.00  0.00     0.258 C 
BRANCH  27  28
ATOM     28  C   UNL     1       7.355  -9.008 -43.450  1.00  0.00     0.201 C 
BRANCH  28  29
ATOM     29  O   UNL     1       6.332  -8.941 -42.518  1.00  0.00    -0.381 OA
ATOM     30  C   UNL     1       5.597  -7.787 -42.672  1.00  0.00     0.195 C 
ENDBRANCH  28  29
ENDBRANCH  27  28
ENDBRANCH  26  27
ENDBRANCH   7  26
TORSDOF 10
ENDMDL
MODEL 17
REMARK minimizedAffinity -6.52944469
REMARK minimizedRMSD -1
REMARK SMILES C#Cc1cccc(Nc2ncnc3cc(OCCOC)c(OCCOC)cc23)c1
REMARK SMILES IDX 9 1 10 2 11 3 12 4 13 5 14 6 15 7 21 8 27 9 28 10 8 11 7 13
REMARK SMILES IDX 2 14 3 15 4 16 29 17 5 18 6 19 1 20 22 21 23 22 24 23 25 24
REMARK SMILES IDX 26 25 16 26 17 27 18 28 19 29 20 30
REMARK H PARENT 8 12
ROOT
ATOM      1  C   UNL     1      -0.311 -11.993 -46.537  1.00  0.00     0.141 A 
ATOM      2  N   UNL     1      -0.890 -13.138 -46.925  1.00  0.00    -0.219 NA
ATOM      3  C   UNL     1      -0.335 -14.356 -46.871  1.00  0.00     0.224 A 
ATOM      4  N   UNL     1       0.914 -14.470 -46.390  1.00  0.00    -0.236 NA
ATOM      5  C   UNL     1       1.565 -13.371 -45.980  1.00  0.00     0.080 A 
ATOM      6  C   UNL     1       2.856 -13.530 -45.489  1.00  0.00     0.079 A 
ATOM      7  C   UNL     1       3.623 -12.484 -45.041  1.00  0.00     0.163 A 
ATOM      8  C   UNL     1       3.004 -11.220 -45.113  1.00  0.00     0.162 A 
ATOM      9  C   UNL     1       1.727 -11.060 -45.598  1.00  0.00     0.064 A 
ATOM     10  C   UNL     1       0.979 -12.101 -46.038  1.00  0.00     0.047 A 
ENDROOT
BRANCH   1  11
ATOM     11  N   UNL     1      -0.932 -10.721 -46.610  1.00  0.00    -0.340 N 
ATOM     12  H   UNL     1      -0.851 -10.132 -47.474  1.00  0.00     0.168 HD
BRANCH  11  13
ATOM     13  C   UNL     1      -1.697 -10.136 -45.559  1.00  0.00     0.041 A 
ATOM     14  C   UNL     1      -4.781 -10.647 -43.528  1.00  0.00    -0.070 C 
ATOM     15  C   UNL     1      -3.551 -10.061 -44.033  1.00  0.00     0.026 A 
ATOM     16  C   UNL     1      -3.102  -8.904 -43.463  1.00  0.00     0.017 A 
ATOM     17  C   UNL     1      -2.864 -10.684 -45.075  1.00  0.00     0.043 A 
ATOM     18  C   UNL     1      -1.927  -8.334 -43.934  1.00  0.00     0.003 A 
ATOM     19  C   UNL     1      -1.269  -8.968 -44.962  1.00  0.00     0.026 A 
ATOM     20  C   UNL     1      -5.802 -11.139 -43.113  1.00  0.00     0.010 C 
ENDBRANCH  11  13
ENDBRANCH   1  11
BRANCH   8  21
ATOM     21  O   UNL     1       3.717 -10.112 -44.676  1.00  0.00    -0.487 OA
BRANCH  21  22
ATOM     22  C   UNL     1       3.479  -8.858 -45.274  1.00  0.00     0.258 C 
BRANCH  22  23
ATOM     23  C   UNL     1       3.059  -7.849 -44.193  1.00  0.00     0.201 C 
BRANCH  23  24
ATOM     24  O   UNL     1       3.546  -8.324 -42.975  1.00  0.00    -0.381 OA
ATOM     25  C   UNL     1       4.445  -7.417 -42.457  1.00  0.00     0.195 C 
ENDBRANCH  23  24
ENDBRANCH  22  23
ENDBRANCH  21  22
ENDBRANCH   8  21
BRANCH   7  26
ATOM     26  O   UNL     1       4.876 -12.520 -44.553  1.00  0.00    -0.487 OA
BRANCH  26  27
ATOM     27  C   UNL     1       6.036 -12.773 -45.280  1.00  0.00     0.258 C 
BRANCH  27  28
ATOM     28  C   UNL     1       7.091 -11.707 -45.220  1.00  0.00     0.201 C 
BRANCH  28  29
ATOM     29  O   UNL     1       7.018 -10.840 -46.298  1.00  0.00    -0.381 OA
ATOM     30  C   UNL     1       7.076  -9.528 -45.883  1.00  0.00     0.195 C 
ENDBRANCH  28  29
ENDBRANCH  27  28
ENDBRANCH  26  27
ENDBRANCH   7  26
TORSDOF 10
ENDMDL
MODEL 18
REMARK minimizedAffinity -6.50409651
REMARK minimizedRMSD -1
REMARK SMILES C#Cc1cccc(Nc2ncnc3cc(OCCOC)c(OCCOC)cc23)c1
REMARK SMILES IDX 9 1 10 2 11 3 12 4 13 5 14 6 15 7 21 8 27 9 28 10 8 11 7 13
REMARK SMILES IDX 2 14 3 15 4 16 29 17 5 18 6 19 1 20 22 21 23 22 24 23 25 24
REMARK SMILES IDX 26 25 16 26 17 27 18 28 19 29 20 30
REMARK H PARENT 8 12
ROOT
ATOM      1  C   UNL     1       0.282 -15.571 -43.990  1.00  0.00     0.141 A 
ATOM      2  N   UNL     1      -0.368 -15.075 -45.052  1.00  0.00    -0.219 NA
ATOM      3  C   UNL     1       0.200 -14.586 -46.163  1.00  0.00     0.224 A 
ATOM      4  N   UNL     1       1.540 -14.579 -46.245  1.00  0.00    -0.236 NA
ATOM      5  C   UNL     1       2.267 -15.057 -45.225  1.00  0.00     0.080 A 
ATOM      6  C   UNL     1       3.652 -15.032 -45.347  1.00  0.00     0.079 A 
ATOM      7  C   UNL     1       4.501 -15.491 -44.373  1.00  0.00     0.163 A 
ATOM      8  C   UNL     1       3.866 -15.998 -43.222  1.00  0.00     0.162 A 
ATOM      9  C   UNL     1       2.496 -16.025 -43.097  1.00  0.00     0.064 A 
ATOM     10  C   UNL     1       1.666 -15.567 -44.067  1.00  0.00     0.047 A 
ENDROOT
BRANCH   1  11
ATOM     11  N   UNL     1      -0.357 -16.080 -42.831  1.00  0.00    -0.340 N 
ATOM     12  H   UNL     1      -0.205 -15.634 -41.894  1.00  0.00     0.168 HD
BRANCH  11  13
ATOM     13  C   UNL     1      -1.232 -17.205 -42.822  1.00  0.00     0.041 A 
ATOM     14  C   UNL     1      -1.377 -20.812 -41.895  1.00  0.00    -0.070 C 
ATOM     15  C   UNL     1      -1.778 -19.501 -42.377  1.00  0.00     0.026 A 
ATOM     16  C   UNL     1      -3.057 -19.339 -42.828  1.00  0.00     0.017 A 
ATOM     17  C   UNL     1      -0.861 -18.451 -42.368  1.00  0.00     0.043 A 
ATOM     18  C   UNL     1      -3.453 -18.091 -43.290  1.00  0.00     0.003 A 
ATOM     19  C   UNL     1      -2.529 -17.072 -43.271  1.00  0.00     0.026 A 
ATOM     20  C   UNL     1      -1.039 -21.899 -41.492  1.00  0.00     0.010 C 
ENDBRANCH  11  13
ENDBRANCH   1  11
BRANCH   8  21
ATOM     21  O   UNL     1       4.658 -16.483 -42.191  1.00  0.00    -0.487 OA
BRANCH  21  22
ATOM     22  C   UNL     1       4.662 -17.865 -41.913  1.00  0.00     0.258 C 
BRANCH  22  23
ATOM     23  C   UNL     1       4.727 -18.079 -40.393  1.00  0.00     0.201 C 
BRANCH  23  24
ATOM     24  O   UNL     1       4.051 -19.268 -40.116  1.00  0.00    -0.381 OA
ATOM     25  C   UNL     1       2.888 -19.315 -40.853  1.00  0.00     0.195 C 
ENDBRANCH  23  24
ENDBRANCH  22  23
ENDBRANCH  21  22
ENDBRANCH   8  21
BRANCH   7  26
ATOM     26  O   UNL     1       5.846 -15.511 -44.382  1.00  0.00    -0.487 OA
BRANCH  26  27
ATOM     27  C   UNL     1       6.671 -15.003 -45.382  1.00  0.00     0.258 C 
BRANCH  27  28
ATOM     28  C   UNL     1       7.394 -13.731 -45.050  1.00  0.00     0.201 C 
BRANCH  28  29
ATOM     29  O   UNL     1       8.527 -13.557 -45.828  1.00  0.00    -0.381 OA
ATOM     30  C   UNL     1       9.217 -14.741 -45.969  1.00  0.00     0.195 C 
ENDBRANCH  28  29
ENDBRANCH  27  28
ENDBRANCH  26  27
ENDBRANCH   7  26
TORSDOF 10
ENDMDL
MODEL 19
REMARK minimizedAffinity -6.49127007
REMARK minimizedRMSD -1
REMARK SMILES C#Cc1cccc(Nc2ncnc3cc(OCCOC)c(OCCOC)cc23)c1
REMARK SMILES IDX 9 1 10 2 11 3 12 4 13 5 14 6 15 7 21 8 27 9 28 10 8 11 7 13
REMARK SMILES IDX 2 14 3 15 4 16 29 17 5 18 6 19 1 20 22 21 23 22 24 23 25 24
REMARK SMILES IDX 26 25 16 26 17 27 18 28 19 29 20 30
REMARK H PARENT 8 12
ROOT
ATOM      1  C   UNL     1       2.752 -17.507 -41.604  1.00  0.00     0.141 A 
ATOM      2  N   UNL     1       3.285 -18.490 -40.865  1.00  0.00    -0.219 NA
ATOM      3  C   UNL     1       4.542 -18.947 -40.954  1.00  0.00     0.224 A 
ATOM      4  N   UNL     1       5.362 -18.388 -41.859  1.00  0.00    -0.236 NA
ATOM      5  C   UNL     1       4.907 -17.398 -42.640  1.00  0.00     0.080 A 
ATOM      6  C   UNL     1       5.786 -16.846 -43.565  1.00  0.00     0.079 A 
ATOM      7  C   UNL     1       5.439 -15.830 -44.419  1.00  0.00     0.163 A 
ATOM      8  C   UNL     1       4.111 -15.377 -44.294  1.00  0.00     0.162 A 
ATOM      9  C   UNL     1       3.238 -15.920 -43.379  1.00  0.00     0.064 A 
ATOM     10  C   UNL     1       3.593 -16.925 -42.541  1.00  0.00     0.047 A 
ENDROOT
BRANCH   1  11
ATOM     11  N   UNL     1       1.415 -17.051 -41.479  1.00  0.00    -0.340 N 
ATOM     12  H   UNL     1       1.199 -16.143 -41.003  1.00  0.00     0.168 HD
BRANCH  11  13
ATOM     13  C   UNL     1       0.276 -17.755 -41.968  1.00  0.00     0.041 A 
ATOM     14  C   UNL     1      -1.510 -21.015 -41.695  1.00  0.00    -0.070 C 
ATOM     15  C   UNL     1      -1.182 -19.659 -42.101  1.00  0.00     0.026 A 
ATOM     16  C   UNL     1      -2.014 -19.027 -42.980  1.00  0.00     0.017 A 
ATOM     17  C   UNL     1      -0.042 -19.040 -41.590  1.00  0.00     0.043 A 
ATOM     18  C   UNL     1      -1.714 -17.730 -43.375  1.00  0.00     0.003 A 
ATOM     19  C   UNL     1      -0.583 -17.142 -42.857  1.00  0.00     0.026 A 
ATOM     20  C   UNL     1      -1.777 -22.141 -41.353  1.00  0.00     0.010 C 
ENDBRANCH  11  13
ENDBRANCH   1  11
BRANCH   8  21
ATOM     21  O   UNL     1       3.684 -14.349 -45.123  1.00  0.00    -0.487 OA
BRANCH  21  22
ATOM     22  C   UNL     1       2.634 -13.510 -44.699  1.00  0.00     0.258 C 
BRANCH  22  23
ATOM     23  C   UNL     1       2.657 -12.210 -45.518  1.00  0.00     0.201 C 
BRANCH  23  24
ATOM     24  O   UNL     1       2.005 -12.472 -46.724  1.00  0.00    -0.381 OA
ATOM     25  C   UNL     1       0.668 -12.696 -46.481  1.00  0.00     0.195 C 
ENDBRANCH  23  24
ENDBRANCH  22  23
ENDBRANCH  21  22
ENDBRANCH   8  21
BRANCH   7  26
ATOM     26  O   UNL     1       6.200 -15.228 -45.350  1.00  0.00    -0.487 OA
BRANCH  26  27
ATOM     27  C   UNL     1       7.555 -15.451 -45.577  1.00  0.00     0.258 C 
BRANCH  27  28
ATOM     28  C   UNL     1       8.455 -14.265 -45.387  1.00  0.00     0.201 C 
BRANCH  28  29
ATOM     29  O   UNL     1       9.339 -14.106 -46.442  1.00  0.00    -0.381 OA
ATOM     30  C   UNL     1      10.192 -15.184 -46.538  1.00  0.00     0.195 C 
ENDBRANCH  28  29
ENDBRANCH  27  28
ENDBRANCH  26  27
ENDBRANCH   7  26
TORSDOF 10
ENDMDL
MODEL 20
REMARK minimizedAffinity -6.44881773
REMARK minimizedRMSD -1
REMARK SMILES C#Cc1cccc(Nc2ncnc3cc(OCCOC)c(OCCOC)cc23)c1
REMARK SMILES IDX 9 1 10 2 11 3 12 4 13 5 14 6 15 7 21 8 27 9 28 10 8 11 7 13
REMARK SMILES IDX 2 14 3 15 4 16 29 17 5 18 6 19 1 20 22 21 23 22 24 23 25 24
REMARK SMILES IDX 26 25 16 26 17 27 18 28 19 29 20 30
REMARK H PARENT 8 12
ROOT
ATOM      1  C   UNL     1       0.448  -9.495 -44.866  1.00  0.00     0.141 A 
ATOM      2  N   UNL     1      -0.610  -8.704 -45.095  1.00  0.00    -0.219 NA
ATOM      3  C   UNL     1      -1.656  -8.999 -45.879  1.00  0.00     0.224 A 
ATOM      4  N   UNL     1      -1.671 -10.187 -46.505  1.00  0.00    -0.236 NA
ATOM      5  C   UNL     1      -0.650 -11.038 -46.330  1.00  0.00     0.080 A 
ATOM      6  C   UNL     1      -0.702 -12.258 -46.996  1.00  0.00     0.079 A 
ATOM      7  C   UNL     1       0.281 -13.210 -46.898  1.00  0.00     0.163 A 
ATOM      8  C   UNL     1       1.363 -12.863 -46.064  1.00  0.00     0.162 A 
ATOM      9  C   UNL     1       1.417 -11.658 -45.403  1.00  0.00     0.064 A 
ATOM     10  C   UNL     1       0.440 -10.724 -45.509  1.00  0.00     0.047 A 
ENDROOT
BRANCH   1  11
ATOM     11  N   UNL     1       1.537  -9.146 -44.028  1.00  0.00    -0.340 N 
ATOM     12  H   UNL     1       1.564  -9.453 -43.026  1.00  0.00     0.168 HD
BRANCH  11  13
ATOM     13  C   UNL     1       2.660  -8.374 -44.447  1.00  0.00     0.041 A 
ATOM     14  C   UNL     1       6.002  -8.681 -46.070  1.00  0.00    -0.070 C 
ATOM     15  C   UNL     1       4.830  -8.097 -45.440  1.00  0.00     0.026 A 
ATOM     16  C   UNL     1       4.799  -6.744 -45.255  1.00  0.00     0.017 A 
ATOM     17  C   UNL     1       3.775  -8.919 -45.044  1.00  0.00     0.043 A 
ATOM     18  C   UNL     1       3.684  -6.173 -44.655  1.00  0.00     0.003 A 
ATOM     19  C   UNL     1       2.658  -7.006 -44.274  1.00  0.00     0.026 A 
ATOM     20  C   UNL     1       6.972  -9.172 -46.593  1.00  0.00     0.010 C 
ENDBRANCH  11  13
ENDBRANCH   1  11
BRANCH   8  21
ATOM     21  O   UNL     1       2.397 -13.776 -45.912  1.00  0.00    -0.487 OA
BRANCH  21  22
ATOM     22  C   UNL     1       3.266 -13.659 -44.809  1.00  0.00     0.258 C 
BRANCH  22  23
ATOM     23  C   UNL     1       4.693 -13.389 -45.311  1.00  0.00     0.201 C 
BRANCH  23  24
ATOM     24  O   UNL     1       5.112 -12.189 -44.735  1.00  0.00    -0.381 OA
ATOM     25  C   UNL     1       6.461 -12.260 -44.462  1.00  0.00     0.195 C 
ENDBRANCH  23  24
ENDBRANCH  22  23
ENDBRANCH  21  22
ENDBRANCH   8  21
BRANCH   7  26
ATOM     26  O   UNL     1       0.337 -14.413 -47.496  1.00  0.00    -0.487 OA
BRANCH  26  27
ATOM     27  C   UNL     1      -0.508 -15.493 -47.256  1.00  0.00     0.258 C 
BRANCH  27  28
ATOM     28  C   UNL     1      -0.220 -16.285 -46.015  1.00  0.00     0.201 C 
BRANCH  28  29
ATOM     29  O   UNL     1      -0.913 -15.803 -44.916  1.00  0.00    -0.381 OA
ATOM     30  C   UNL     1      -0.067 -15.593 -43.850  1.00  0.00     0.195 C 
ENDBRANCH  28  29
ENDBRANCH  27  28
ENDBRANCH  26  27
ENDBRANCH   7  26
TORSDOF 10
ENDMDL
