MODEL 1
REMARK minimizedAffinity -9.25339222
REMARK minimizedRMSD -1
REMARK SMILES COc1cc2c(Oc3ccc(NC(=O)C4(C(=O)Nc5ccc(F)cc5)CC4)cc3F)ccnc2cc1OCCCN1CCOCC1
REMARK SMILES IDX 7 1 6 2 3 3 4 4 36 5 5 6 35 7 34 8 31 9 33 10 32 11 2 12
REMARK SMILES IDX 1 13 37 14 38 15 39 16 40 17 41 18 42 19 46 20 43 21 45 22
REMARK SMILES IDX 44 23 8 24 9 25 29 26 10 27 28 28 11 29 30 30 12 31 13 32
REMARK SMILES IDX 14 33 15 35 26 36 27 37 16 38 17 39 18 40 19 42 20 43 25 44
REMARK SMILES IDX 21 45 24 46 22 47 23 48
REMARK H PARENT 12 34 18 41
ROOT
ATOM      1  O   UNL     1       6.385 -12.646 -45.642  1.00  0.00    -0.454 OA
ENDROOT
BRANCH   1   2
ATOM      2  C   UNL     1       5.982 -11.365 -45.335  1.00  0.00     0.138 A 
ATOM      3  C   UNL     1       2.239 -11.494 -45.652  1.00  0.00     0.161 A 
ATOM      4  C   UNL     1       3.573 -11.906 -45.670  1.00  0.00     0.064 A 
ATOM      5  C   UNL     1       1.936 -10.168 -45.303  1.00  0.00     0.163 A 
ATOM      6  C   UNL     1       4.617 -11.010 -45.344  1.00  0.00     0.047 A 
ATOM      7  C   UNL     1       2.975  -9.289 -44.980  1.00  0.00     0.079 A 
ATOM      8  C   UNL     1       4.306  -9.687 -44.986  1.00  0.00     0.078 A 
ATOM      9  C   UNL     1       6.953 -10.462 -44.919  1.00  0.00     0.068 A 
ATOM     10  N   UNL     1       5.248  -8.793 -44.633  1.00  0.00    -0.256 NA
ATOM     11  C   UNL     1       6.537  -9.193 -44.591  1.00  0.00     0.115 A 
BRANCH   3  12
ATOM     12  O   UNL     1       1.172 -12.303 -45.953  1.00  0.00    -0.493 OA
ATOM     13  C   UNL     1       1.419 -13.693 -46.109  1.00  0.00     0.278 C 
ENDBRANCH   3  12
BRANCH   5  14
ATOM     14  O   UNL     1       0.605  -9.845 -45.301  1.00  0.00    -0.490 OA
BRANCH  14  15
ATOM     15  C   UNL     1       0.198  -8.484 -45.411  1.00  0.00     0.231 C 
BRANCH  15  16
ATOM     16  C   UNL     1      -1.300  -8.355 -45.694  1.00  0.00     0.057 C 
BRANCH  16  17
ATOM     17  C   UNL     1      -2.029  -7.620 -44.557  1.00  0.00     0.088 C 
BRANCH  17  18
ATOM     18  N   UNL     1      -3.259  -8.237 -44.050  1.00  0.00    -0.299 NA
ATOM     19  C   UNL     1      -3.052  -9.559 -43.433  1.00  0.00     0.113 C 
ATOM     20  C   UNL     1      -4.017  -7.376 -43.125  1.00  0.00     0.113 C 
ATOM     21  C   UNL     1      -4.396 -10.182 -43.022  1.00  0.00     0.175 C 
ATOM     22  C   UNL     1      -5.339  -8.048 -42.719  1.00  0.00     0.175 C 
ATOM     23  O   UNL     1      -5.107  -9.328 -42.113  1.00  0.00    -0.379 OA
ENDBRANCH  17  18
ENDBRANCH  16  17
ENDBRANCH  15  16
ENDBRANCH  14  15
ENDBRANCH   5  14
ENDBRANCH   1   2
BRANCH   1  24
ATOM     24  C   UNL     1       6.109 -13.628 -44.716  1.00  0.00     0.163 A 
ATOM     25  C   UNL     1       6.345 -13.507 -43.347  1.00  0.00     0.052 A 
ATOM     26  C   UNL     1       5.493 -14.784 -45.194  1.00  0.00     0.167 A 
ATOM     27  C   UNL     1       5.970 -14.541 -42.477  1.00  0.00     0.030 A 
ATOM     28  C   UNL     1       5.126 -15.816 -44.334  1.00  0.00     0.069 A 
ATOM     29  C   UNL     1       5.356 -15.698 -42.961  1.00  0.00     0.044 A 
ATOM     30  F   UNL     1       5.257 -14.928 -46.506  1.00  0.00    -0.203 F 
BRANCH  29  31
ATOM     31  N   UNL     1       4.945 -16.770 -42.146  1.00  0.00    -0.325 N 
ATOM     32  C   UNL     1       3.655 -17.200 -41.914  1.00  0.00     0.240 C 
ATOM     33  O   UNL     1       2.616 -16.762 -42.385  1.00  0.00    -0.273 OA
ATOM     34  H   UNL     1       5.680 -17.323 -41.717  1.00  0.00     0.169 HD
BRANCH  32  35
ATOM     35  C   UNL     1       3.586 -18.383 -40.998  1.00  0.00     0.128 C 
ATOM     36  C   UNL     1       4.690 -18.554 -39.953  1.00  0.00     0.028 C 
ATOM     37  C   UNL     1       4.668 -19.454 -41.147  1.00  0.00     0.028 C 
BRANCH  35  38
ATOM     38  C   UNL     1       2.204 -18.821 -40.620  1.00  0.00     0.240 C 
ATOM     39  O   UNL     1       1.831 -18.662 -39.466  1.00  0.00    -0.274 OA
ATOM     40  N   UNL     1       1.509 -19.385 -41.670  1.00  0.00    -0.325 N 
ATOM     41  H   UNL     1       2.013 -19.458 -42.549  1.00  0.00     0.169 HD
BRANCH  40  42
ATOM     42  C   UNL     1       0.207 -19.919 -41.651  1.00  0.00     0.041 A 
ATOM     43  C   UNL     1      -0.952 -19.154 -41.814  1.00  0.00     0.029 A 
ATOM     44  C   UNL     1       0.087 -21.301 -41.457  1.00  0.00     0.029 A 
ATOM     45  C   UNL     1      -2.211 -19.761 -41.773  1.00  0.00     0.041 A 
ATOM     46  C   UNL     1      -1.171 -21.908 -41.418  1.00  0.00     0.041 A 
ATOM     47  C   UNL     1      -2.311 -21.130 -41.574  1.00  0.00     0.123 A 
ATOM     48  F   UNL     1      -3.517 -21.709 -41.527  1.00  0.00    -0.207 F 
ENDBRANCH  40  42
ENDBRANCH  35  38
ENDBRANCH  32  35
ENDBRANCH  29  31
ENDBRANCH   1  24
TORSDOF 12
ENDMDL
MODEL 2
REMARK minimizedAffinity -9.20310116
REMARK minimizedRMSD -1
REMARK SMILES COc1cc2c(Oc3ccc(NC(=O)C4(C(=O)Nc5ccc(F)cc5)CC4)cc3F)ccnc2cc1OCCCN1CCOCC1
REMARK SMILES IDX 7 1 6 2 3 3 4 4 36 5 5 6 35 7 34 8 31 9 33 10 32 11 2 12
REMARK SMILES IDX 1 13 37 14 38 15 39 16 40 17 41 18 42 19 46 20 43 21 45 22
REMARK SMILES IDX 44 23 8 24 9 25 29 26 10 27 28 28 11 29 30 30 12 31 13 32
REMARK SMILES IDX 14 33 15 35 26 36 27 37 16 38 17 39 18 40 19 42 20 43 25 44
REMARK SMILES IDX 21 45 24 46 22 47 23 48
REMARK H PARENT 12 34 18 41
ROOT
ATOM      1  O   UNL     1       0.742 -19.546 -40.278  1.00  0.00    -0.454 OA
ENDROOT
BRANCH   1   2
ATOM      2  C   UNL     1      -0.274 -19.462 -41.206  1.00  0.00     0.138 A 
ATOM      3  C   UNL     1       0.416 -16.242 -43.016  1.00  0.00     0.161 A 
ATOM      4  C   UNL     1       0.552 -17.290 -42.105  1.00  0.00     0.064 A 
ATOM      5  C   UNL     1      -0.646 -16.266 -43.935  1.00  0.00     0.163 A 
ATOM      6  C   UNL     1      -0.360 -18.370 -42.094  1.00  0.00     0.047 A 
ATOM      7  C   UNL     1      -1.543 -17.339 -43.918  1.00  0.00     0.079 A 
ATOM      8  C   UNL     1      -1.415 -18.394 -43.022  1.00  0.00     0.078 A 
ATOM      9  C   UNL     1      -1.150 -20.537 -41.305  1.00  0.00     0.068 A 
ATOM     10  N   UNL     1      -2.298 -19.407 -43.088  1.00  0.00    -0.256 NA
ATOM     11  C   UNL     1      -2.146 -20.454 -42.250  1.00  0.00     0.115 A 
BRANCH   3  12
ATOM     12  O   UNL     1       1.259 -15.162 -43.090  1.00  0.00    -0.493 OA
ATOM     13  C   UNL     1       2.518 -15.347 -43.721  1.00  0.00     0.278 C 
ENDBRANCH   3  12
BRANCH   5  14
ATOM     14  O   UNL     1      -0.705 -15.206 -44.801  1.00  0.00    -0.490 OA
BRANCH  14  15
ATOM     15  C   UNL     1      -0.322 -15.372 -46.162  1.00  0.00     0.231 C 
BRANCH  15  16
ATOM     16  C   UNL     1       0.471 -14.171 -46.685  1.00  0.00     0.057 C 
BRANCH  16  17
ATOM     17  C   UNL     1      -0.355 -12.878 -46.624  1.00  0.00     0.088 C 
BRANCH  17  18
ATOM     18  N   UNL     1      -0.412 -12.187 -45.331  1.00  0.00    -0.299 NA
ATOM     19  C   UNL     1       0.899 -12.041 -44.675  1.00  0.00     0.113 C 
ATOM     20  C   UNL     1      -1.082 -10.876 -45.387  1.00  0.00     0.113 C 
ATOM     21  C   UNL     1       0.742 -11.403 -43.286  1.00  0.00     0.175 C 
ATOM     22  C   UNL     1      -1.194 -10.263 -43.982  1.00  0.00     0.175 C 
ATOM     23  O   UNL     1       0.097 -10.124 -43.371  1.00  0.00    -0.379 OA
ENDBRANCH  17  18
ENDBRANCH  16  17
ENDBRANCH  15  16
ENDBRANCH  14  15
ENDBRANCH   5  14
ENDBRANCH   1   2
BRANCH   1  24
ATOM     24  C   UNL     1       2.010 -19.788 -40.759  1.00  0.00     0.163 A 
ATOM     25  C   UNL     1       2.310 -20.714 -41.757  1.00  0.00     0.052 A 
ATOM     26  C   UNL     1       3.037 -18.996 -40.245  1.00  0.00     0.167 A 
ATOM     27  C   UNL     1       3.626 -20.843 -42.224  1.00  0.00     0.030 A 
ATOM     28  C   UNL     1       4.347 -19.126 -40.700  1.00  0.00     0.069 A 
ATOM     29  C   UNL     1       4.651 -20.049 -41.703  1.00  0.00     0.044 A 
ATOM     30  F   UNL     1       2.778 -18.100 -39.282  1.00  0.00    -0.203 F 
BRANCH  29  31
ATOM     31  N   UNL     1       5.991 -20.117 -42.129  1.00  0.00    -0.325 N 
ATOM     32  C   UNL     1       6.486 -19.837 -43.385  1.00  0.00     0.240 C 
ATOM     33  O   UNL     1       5.875 -19.448 -44.370  1.00  0.00    -0.273 OA
ATOM     34  H   UNL     1       6.682 -20.351 -41.423  1.00  0.00     0.169 HD
BRANCH  32  35
ATOM     35  C   UNL     1       7.972 -20.004 -43.482  1.00  0.00     0.128 C 
ATOM     36  C   UNL     1       8.585 -20.248 -44.861  1.00  0.00     0.028 C 
ATOM     37  C   UNL     1       8.502 -21.380 -43.887  1.00  0.00     0.028 C 
BRANCH  35  38
ATOM     38  C   UNL     1       8.772 -19.197 -42.504  1.00  0.00     0.240 C 
ATOM     39  O   UNL     1       8.661 -19.442 -41.310  1.00  0.00    -0.274 OA
ATOM     40  N   UNL     1       9.552 -18.233 -43.107  1.00  0.00    -0.325 N 
ATOM     41  H   UNL     1       9.475 -18.167 -44.117  1.00  0.00     0.169 HD
BRANCH  40  42
ATOM     42  C   UNL     1      10.395 -17.295 -42.482  1.00  0.00     0.041 A 
ATOM     43  C   UNL     1      10.093 -15.935 -42.359  1.00  0.00     0.029 A 
ATOM     44  C   UNL     1      11.603 -17.773 -41.957  1.00  0.00     0.029 A 
ATOM     45  C   UNL     1      10.990 -15.066 -41.731  1.00  0.00     0.041 A 
ATOM     46  C   UNL     1      12.498 -16.904 -41.328  1.00  0.00     0.041 A 
ATOM     47  C   UNL     1      12.184 -15.556 -41.223  1.00  0.00     0.123 A 
ATOM     48  F   UNL     1      13.046 -14.721 -40.629  1.00  0.00    -0.207 F 
ENDBRANCH  40  42
ENDBRANCH  35  38
ENDBRANCH  32  35
ENDBRANCH  29  31
ENDBRANCH   1  24
TORSDOF 12
ENDMDL
MODEL 3
REMARK minimizedAffinity -9.09346771
REMARK minimizedRMSD -1
REMARK SMILES COc1cc2c(Oc3ccc(NC(=O)C4(C(=O)Nc5ccc(F)cc5)CC4)cc3F)ccnc2cc1OCCCN1CCOCC1
REMARK SMILES IDX 7 1 6 2 3 3 4 4 36 5 5 6 35 7 34 8 31 9 33 10 32 11 2 12
REMARK SMILES IDX 1 13 37 14 38 15 39 16 40 17 41 18 42 19 46 20 43 21 45 22
REMARK SMILES IDX 44 23 8 24 9 25 29 26 10 27 28 28 11 29 30 30 12 31 13 32
REMARK SMILES IDX 14 33 15 35 26 36 27 37 16 38 17 39 18 40 19 42 20 43 25 44
REMARK SMILES IDX 21 45 24 46 22 47 23 48
REMARK H PARENT 12 34 18 41
ROOT
ATOM      1  O   UNL     1       8.548 -17.088 -43.449  1.00  0.00    -0.454 OA
ENDROOT
BRANCH   1   2
ATOM      2  C   UNL     1       8.680 -16.093 -44.393  1.00  0.00     0.138 A 
ATOM      3  C   UNL     1       7.318 -13.036 -42.683  1.00  0.00     0.161 A 
ATOM      4  C   UNL     1       7.695 -14.363 -42.894  1.00  0.00     0.064 A 
ATOM      5  C   UNL     1       7.517 -12.096 -43.707  1.00  0.00     0.163 A 
ATOM      6  C   UNL     1       8.270 -14.771 -44.119  1.00  0.00     0.047 A 
ATOM      7  C   UNL     1       8.088 -12.508 -44.914  1.00  0.00     0.079 A 
ATOM      8  C   UNL     1       8.476 -13.824 -45.136  1.00  0.00     0.078 A 
ATOM      9  C   UNL     1       9.321 -16.412 -45.584  1.00  0.00     0.068 A 
ATOM     10  N   UNL     1       9.049 -14.137 -46.313  1.00  0.00    -0.256 NA
ATOM     11  C   UNL     1       9.470 -15.405 -46.510  1.00  0.00     0.115 A 
BRANCH   3  12
ATOM     12  O   UNL     1       6.756 -12.564 -41.524  1.00  0.00    -0.493 OA
ATOM     13  C   UNL     1       7.557 -12.566 -40.351  1.00  0.00     0.278 C 
ENDBRANCH   3  12
BRANCH   5  14
ATOM     14  O   UNL     1       7.128 -10.814 -43.418  1.00  0.00    -0.490 OA
BRANCH  14  15
ATOM     15  C   UNL     1       7.071  -9.834 -44.450  1.00  0.00     0.231 C 
BRANCH  15  16
ATOM     16  C   UNL     1       7.518  -8.456 -43.958  1.00  0.00     0.057 C 
BRANCH  16  17
ATOM     17  C   UNL     1       6.729  -7.328 -44.641  1.00  0.00     0.088 C 
BRANCH  17  18
ATOM     18  N   UNL     1       5.651  -6.707 -43.863  1.00  0.00    -0.299 NA
ATOM     19  C   UNL     1       4.431  -6.437 -44.646  1.00  0.00     0.113 C 
ATOM     20  C   UNL     1       5.296  -7.452 -42.642  1.00  0.00     0.113 C 
ATOM     21  C   UNL     1       3.392  -5.697 -43.789  1.00  0.00     0.175 C 
ATOM     22  C   UNL     1       4.236  -6.690 -41.831  1.00  0.00     0.175 C 
ATOM     23  O   UNL     1       3.057  -6.448 -42.613  1.00  0.00    -0.379 OA
ENDBRANCH  17  18
ENDBRANCH  16  17
ENDBRANCH  15  16
ENDBRANCH  14  15
ENDBRANCH   5  14
ENDBRANCH   1   2
BRANCH   1  24
ATOM     24  C   UNL     1       7.270 -17.389 -43.031  1.00  0.00     0.163 A 
ATOM     25  C   UNL     1       6.160 -17.447 -43.872  1.00  0.00     0.052 A 
ATOM     26  C   UNL     1       7.113 -17.719 -41.685  1.00  0.00     0.167 A 
ATOM     27  C   UNL     1       4.910 -17.824 -43.361  1.00  0.00     0.030 A 
ATOM     28  C   UNL     1       5.872 -18.087 -41.171  1.00  0.00     0.069 A 
ATOM     29  C   UNL     1       4.757 -18.151 -42.012  1.00  0.00     0.044 A 
ATOM     30  F   UNL     1       8.162 -17.669 -40.852  1.00  0.00    -0.203 F 
BRANCH  29  31
ATOM     31  N   UNL     1       3.537 -18.547 -41.432  1.00  0.00    -0.325 N 
ATOM     32  C   UNL     1       2.904 -19.765 -41.562  1.00  0.00     0.240 C 
ATOM     33  O   UNL     1       3.281 -20.751 -42.178  1.00  0.00    -0.273 OA
ATOM     34  H   UNL     1       3.093 -17.882 -40.806  1.00  0.00     0.169 HD
BRANCH  32  35
ATOM     35  C   UNL     1       1.621 -19.845 -40.793  1.00  0.00     0.128 C 
ATOM     36  C   UNL     1       1.568 -19.205 -39.405  1.00  0.00     0.028 C 
ATOM     37  C   UNL     1       1.612 -20.695 -39.522  1.00  0.00     0.028 C 
BRANCH  35  38
ATOM     38  C   UNL     1       0.373 -19.800 -41.623  1.00  0.00     0.240 C 
ATOM     39  O   UNL     1       0.067 -20.787 -42.278  1.00  0.00    -0.274 OA
ATOM     40  N   UNL     1      -0.286 -18.591 -41.544  1.00  0.00    -0.325 N 
ATOM     41  H   UNL     1       0.154 -17.881 -40.967  1.00  0.00     0.169 HD
BRANCH  40  42
ATOM     42  C   UNL     1      -1.464 -18.209 -42.213  1.00  0.00     0.041 A 
ATOM     43  C   UNL     1      -1.514 -17.219 -43.199  1.00  0.00     0.029 A 
ATOM     44  C   UNL     1      -2.645 -18.874 -41.857  1.00  0.00     0.029 A 
ATOM     45  C   UNL     1      -2.728 -16.892 -43.811  1.00  0.00     0.041 A 
ATOM     46  C   UNL     1      -3.857 -18.548 -42.471  1.00  0.00     0.041 A 
ATOM     47  C   UNL     1      -3.888 -17.557 -43.442  1.00  0.00     0.123 A 
ATOM     48  F   UNL     1      -5.051 -17.236 -44.022  1.00  0.00    -0.207 F 
ENDBRANCH  40  42
ENDBRANCH  35  38
ENDBRANCH  32  35
ENDBRANCH  29  31
ENDBRANCH   1  24
TORSDOF 12
ENDMDL
MODEL 4
REMARK minimizedAffinity -9.04384995
REMARK minimizedRMSD -1
REMARK SMILES COc1cc2c(Oc3ccc(NC(=O)C4(C(=O)Nc5ccc(F)cc5)CC4)cc3F)ccnc2cc1OCCCN1CCOCC1
REMARK SMILES IDX 7 1 6 2 3 3 4 4 36 5 5 6 35 7 34 8 31 9 33 10 32 11 2 12
REMARK SMILES IDX 1 13 37 14 38 15 39 16 40 17 41 18 42 19 46 20 43 21 45 22
REMARK SMILES IDX 44 23 8 24 9 25 29 26 10 27 28 28 11 29 30 30 12 31 13 32
REMARK SMILES IDX 14 33 15 35 26 36 27 37 16 38 17 39 18 40 19 42 20 43 25 44
REMARK SMILES IDX 21 45 24 46 22 47 23 48
REMARK H PARENT 12 34 18 41
ROOT
ATOM      1  O   UNL     1       8.095 -12.064 -44.258  1.00  0.00    -0.454 OA
ENDROOT
BRANCH   1   2
ATOM      2  C   UNL     1       8.451 -12.526 -43.010  1.00  0.00     0.138 A 
ATOM      3  C   UNL     1      11.571 -14.523 -43.639  1.00  0.00     0.161 A 
ATOM      4  C   UNL     1      10.448 -13.732 -43.884  1.00  0.00     0.064 A 
ATOM      5  C   UNL     1      11.855 -14.922 -42.322  1.00  0.00     0.163 A 
ATOM      6  C   UNL     1       9.595 -13.330 -42.831  1.00  0.00     0.047 A 
ATOM      7  C   UNL     1      11.007 -14.518 -41.286  1.00  0.00     0.079 A 
ATOM      8  C   UNL     1       9.890 -13.724 -41.513  1.00  0.00     0.078 A 
ATOM      9  C   UNL     1       7.704 -12.090 -41.921  1.00  0.00     0.068 A 
ATOM     10  N   UNL     1       9.139 -13.349 -40.461  1.00  0.00    -0.256 NA
ATOM     11  C   UNL     1       8.082 -12.538 -40.676  1.00  0.00     0.115 A 
BRANCH   3  12
ATOM     12  O   UNL     1      12.445 -14.952 -44.605  1.00  0.00    -0.493 OA
ATOM     13  C   UNL     1      11.915 -15.267 -45.885  1.00  0.00     0.278 C 
ENDBRANCH   3  12
BRANCH   5  14
ATOM     14  O   UNL     1      12.979 -15.689 -42.164  1.00  0.00    -0.490 OA
BRANCH  14  15
ATOM     15  C   UNL     1      12.913 -16.913 -41.439  1.00  0.00     0.231 C 
BRANCH  15  16
ATOM     16  C   UNL     1      12.172 -18.002 -42.219  1.00  0.00     0.057 C 
BRANCH  16  17
ATOM     17  C   UNL     1      10.877 -18.424 -41.508  1.00  0.00     0.088 C 
BRANCH  17  18
ATOM     18  N   UNL     1       9.628 -17.826 -41.994  1.00  0.00    -0.299 NA
ATOM     19  C   UNL     1       9.602 -17.604 -43.451  1.00  0.00     0.113 C 
ATOM     20  C   UNL     1       8.419 -18.564 -41.588  1.00  0.00     0.113 C 
ATOM     21  C   UNL     1       8.309 -16.884 -43.866  1.00  0.00     0.175 C 
ATOM     22  C   UNL     1       7.153 -17.824 -42.046  1.00  0.00     0.175 C 
ATOM     23  O   UNL     1       7.149 -17.630 -43.467  1.00  0.00    -0.379 OA
ENDBRANCH  17  18
ENDBRANCH  16  17
ENDBRANCH  15  16
ENDBRANCH  14  15
ENDBRANCH   5  14
ENDBRANCH   1   2
BRANCH   1  24
ATOM     24  C   UNL     1       6.903 -12.519 -44.778  1.00  0.00     0.163 A 
ATOM     25  C   UNL     1       6.645 -13.850 -45.105  1.00  0.00     0.052 A 
ATOM     26  C   UNL     1       5.881 -11.582 -44.916  1.00  0.00     0.167 A 
ATOM     27  C   UNL     1       5.377 -14.225 -45.570  1.00  0.00     0.030 A 
ATOM     28  C   UNL     1       4.622 -11.948 -45.384  1.00  0.00     0.069 A 
ATOM     29  C   UNL     1       4.357 -13.281 -45.709  1.00  0.00     0.044 A 
ATOM     30  F   UNL     1       6.102 -10.294 -44.612  1.00  0.00    -0.203 F 
BRANCH  29  31
ATOM     31  N   UNL     1       3.059 -13.587 -46.160  1.00  0.00    -0.325 N 
ATOM     32  C   UNL     1       2.154 -14.454 -45.585  1.00  0.00     0.240 C 
ATOM     33  O   UNL     1       2.280 -15.106 -44.559  1.00  0.00    -0.273 OA
ATOM     34  H   UNL     1       2.728 -13.077 -46.974  1.00  0.00     0.169 HD
BRANCH  32  35
ATOM     35  C   UNL     1       0.856 -14.527 -46.329  1.00  0.00     0.128 C 
ATOM     36  C   UNL     1      -0.159 -15.593 -45.910  1.00  0.00     0.028 C 
ATOM     37  C   UNL     1       0.603 -15.770 -47.184  1.00  0.00     0.028 C 
BRANCH  35  38
ATOM     38  C   UNL     1       0.319 -13.214 -46.812  1.00  0.00     0.240 C 
ATOM     39  O   UNL     1       0.486 -12.907 -47.985  1.00  0.00    -0.274 OA
ATOM     40  N   UNL     1      -0.308 -12.488 -45.822  1.00  0.00    -0.325 N 
ATOM     41  H   UNL     1      -0.310 -12.906 -44.897  1.00  0.00     0.169 HD
BRANCH  40  42
ATOM     42  C   UNL     1      -0.894 -11.213 -45.931  1.00  0.00     0.041 A 
ATOM     43  C   UNL     1      -2.076 -10.956 -46.632  1.00  0.00     0.029 A 
ATOM     44  C   UNL     1      -0.239 -10.152 -45.291  1.00  0.00     0.029 A 
ATOM     45  C   UNL     1      -2.589  -9.657 -46.701  1.00  0.00     0.041 A 
ATOM     46  C   UNL     1      -0.754  -8.855 -45.358  1.00  0.00     0.041 A 
ATOM     47  C   UNL     1      -1.924  -8.618 -46.066  1.00  0.00     0.123 A 
ATOM     48  F   UNL     1      -2.411  -7.373 -46.140  1.00  0.00    -0.207 F 
ENDBRANCH  40  42
ENDBRANCH  35  38
ENDBRANCH  32  35
ENDBRANCH  29  31
ENDBRANCH   1  24
TORSDOF 12
ENDMDL
MODEL 5
REMARK minimizedAffinity -8.99377441
REMARK minimizedRMSD -1
REMARK SMILES COc1cc2c(Oc3ccc(NC(=O)C4(C(=O)Nc5ccc(F)cc5)CC4)cc3F)ccnc2cc1OCCCN1CCOCC1
REMARK SMILES IDX 7 1 6 2 3 3 4 4 36 5 5 6 35 7 34 8 31 9 33 10 32 11 2 12
REMARK SMILES IDX 1 13 37 14 38 15 39 16 40 17 41 18 42 19 46 20 43 21 45 22
REMARK SMILES IDX 44 23 8 24 9 25 29 26 10 27 28 28 11 29 30 30 12 31 13 32
REMARK SMILES IDX 14 33 15 35 26 36 27 37 16 38 17 39 18 40 19 42 20 43 25 44
REMARK SMILES IDX 21 45 24 46 22 47 23 48
REMARK H PARENT 12 34 18 41
ROOT
ATOM      1  O   UNL     1       1.732 -12.443 -45.950  1.00  0.00    -0.454 OA
ENDROOT
BRANCH   1   2
ATOM      2  C   UNL     1       1.517 -11.203 -45.387  1.00  0.00     0.138 A 
ATOM      3  C   UNL     1       4.830  -9.465 -45.733  1.00  0.00     0.161 A 
ATOM      4  C   UNL     1       3.856 -10.461 -45.814  1.00  0.00     0.064 A 
ATOM      5  C   UNL     1       4.498  -8.227 -45.158  1.00  0.00     0.163 A 
ATOM      6  C   UNL     1       2.547 -10.243 -45.328  1.00  0.00     0.047 A 
ATOM      7  C   UNL     1       3.200  -8.019 -44.681  1.00  0.00     0.079 A 
ATOM      8  C   UNL     1       2.218  -8.998 -44.763  1.00  0.00     0.078 A 
ATOM      9  C   UNL     1       0.226 -10.896 -44.973  1.00  0.00     0.068 A 
ATOM     10  N   UNL     1       0.983  -8.712 -44.311  1.00  0.00    -0.256 NA
ATOM     11  C   UNL     1       0.016  -9.647 -44.435  1.00  0.00     0.115 A 
BRANCH   3  12
ATOM     12  O   UNL     1       6.119  -9.600 -46.183  1.00  0.00    -0.493 OA
ATOM     13  C   UNL     1       6.416  -9.135 -47.492  1.00  0.00     0.278 C 
ENDBRANCH   3  12
BRANCH   5  14
ATOM     14  O   UNL     1       5.506  -7.300 -45.124  1.00  0.00    -0.490 OA
BRANCH  14  15
ATOM     15  C   UNL     1       6.215  -7.058 -43.912  1.00  0.00     0.231 C 
BRANCH  15  16
ATOM     16  C   UNL     1       6.051  -8.206 -42.913  1.00  0.00     0.057 C 
BRANCH  16  17
ATOM     17  C   UNL     1       7.280  -9.128 -42.904  1.00  0.00     0.088 C 
BRANCH  17  18
ATOM     18  N   UNL     1       7.048 -10.540 -42.581  1.00  0.00    -0.299 NA
ATOM     19  C   UNL     1       7.352 -11.462 -43.690  1.00  0.00     0.113 C 
ATOM     20  C   UNL     1       7.741 -10.991 -41.362  1.00  0.00     0.113 C 
ATOM     21  C   UNL     1       6.987 -12.906 -43.309  1.00  0.00     0.175 C 
ATOM     22  C   UNL     1       7.369 -12.446 -41.034  1.00  0.00     0.175 C 
ATOM     23  O   UNL     1       7.684 -13.323 -42.125  1.00  0.00    -0.379 OA
ENDBRANCH  17  18
ENDBRANCH  16  17
ENDBRANCH  15  16
ENDBRANCH  14  15
ENDBRANCH   5  14
ENDBRANCH   1   2
BRANCH   1  24
ATOM     24  C   UNL     1       2.062 -13.470 -45.093  1.00  0.00     0.163 A 
ATOM     25  C   UNL     1       3.314 -13.631 -44.503  1.00  0.00     0.052 A 
ATOM     26  C   UNL     1       1.041 -14.358 -44.758  1.00  0.00     0.167 A 
ATOM     27  C   UNL     1       3.534 -14.675 -43.595  1.00  0.00     0.030 A 
ATOM     28  C   UNL     1       1.256 -15.402 -43.861  1.00  0.00     0.069 A 
ATOM     29  C   UNL     1       2.509 -15.565 -43.264  1.00  0.00     0.044 A 
ATOM     30  F   UNL     1      -0.173 -14.230 -45.313  1.00  0.00    -0.203 F 
BRANCH  29  31
ATOM     31  N   UNL     1       2.653 -16.629 -42.355  1.00  0.00    -0.325 N 
ATOM     32  C   UNL     1       3.725 -17.489 -42.234  1.00  0.00     0.240 C 
ATOM     33  O   UNL     1       4.771 -17.487 -42.867  1.00  0.00    -0.273 OA
ATOM     34  H   UNL     1       1.909 -16.751 -41.675  1.00  0.00     0.169 HD
BRANCH  32  35
ATOM     35  C   UNL     1       3.546 -18.502 -41.146  1.00  0.00     0.128 C 
ATOM     36  C   UNL     1       4.581 -18.545 -40.020  1.00  0.00     0.028 C 
ATOM     37  C   UNL     1       4.578 -19.628 -41.052  1.00  0.00     0.028 C 
BRANCH  35  38
ATOM     38  C   UNL     1       2.124 -18.815 -40.789  1.00  0.00     0.240 C 
ATOM     39  O   UNL     1       1.677 -18.394 -39.731  1.00  0.00    -0.274 OA
ATOM     40  N   UNL     1       1.484 -19.583 -41.740  1.00  0.00    -0.325 N 
ATOM     41  H   UNL     1       2.045 -19.861 -42.538  1.00  0.00     0.169 HD
BRANCH  40  42
ATOM     42  C   UNL     1       0.164 -20.071 -41.703  1.00  0.00     0.041 A 
ATOM     43  C   UNL     1      -0.967 -19.277 -41.918  1.00  0.00     0.029 A 
ATOM     44  C   UNL     1      -0.005 -21.436 -41.437  1.00  0.00     0.029 A 
ATOM     45  C   UNL     1      -2.246 -19.837 -41.856  1.00  0.00     0.041 A 
ATOM     46  C   UNL     1      -1.284 -21.996 -41.378  1.00  0.00     0.041 A 
ATOM     47  C   UNL     1      -2.394 -21.189 -41.586  1.00  0.00     0.123 A 
ATOM     48  F   UNL     1      -3.620 -21.723 -41.518  1.00  0.00    -0.207 F 
ENDBRANCH  40  42
ENDBRANCH  35  38
ENDBRANCH  32  35
ENDBRANCH  29  31
ENDBRANCH   1  24
TORSDOF 12
ENDMDL
MODEL 6
REMARK minimizedAffinity -8.90810585
REMARK minimizedRMSD -1
REMARK SMILES COc1cc2c(Oc3ccc(NC(=O)C4(C(=O)Nc5ccc(F)cc5)CC4)cc3F)ccnc2cc1OCCCN1CCOCC1
REMARK SMILES IDX 7 1 6 2 3 3 4 4 36 5 5 6 35 7 34 8 31 9 33 10 32 11 2 12
REMARK SMILES IDX 1 13 37 14 38 15 39 16 40 17 41 18 42 19 46 20 43 21 45 22
REMARK SMILES IDX 44 23 8 24 9 25 29 26 10 27 28 28 11 29 30 30 12 31 13 32
REMARK SMILES IDX 14 33 15 35 26 36 27 37 16 38 17 39 18 40 19 42 20 43 25 44
REMARK SMILES IDX 21 45 24 46 22 47 23 48
REMARK H PARENT 12 34 18 41
ROOT
ATOM      1  O   UNL     1       8.145 -12.142 -44.341  1.00  0.00    -0.454 OA
ENDROOT
BRANCH   1   2
ATOM      2  C   UNL     1       8.578 -12.560 -43.101  1.00  0.00     0.138 A 
ATOM      3  C   UNL     1      11.609 -14.649 -43.856  1.00  0.00     0.161 A 
ATOM      4  C   UNL     1      10.486 -13.844 -44.057  1.00  0.00     0.064 A 
ATOM      5  C   UNL     1      11.976 -14.998 -42.546  1.00  0.00     0.163 A 
ATOM      6  C   UNL     1       9.717 -13.380 -42.966  1.00  0.00     0.047 A 
ATOM      7  C   UNL     1      11.209 -14.534 -41.472  1.00  0.00     0.079 A 
ATOM      8  C   UNL     1      10.094 -13.726 -41.657  1.00  0.00     0.078 A 
ATOM      9  C   UNL     1       7.916 -12.064 -41.984  1.00  0.00     0.068 A 
ATOM     10  N   UNL     1       9.425 -13.291 -40.573  1.00  0.00    -0.256 NA
ATOM     11  C   UNL     1       8.371 -12.467 -40.750  1.00  0.00     0.115 A 
BRANCH   3  12
ATOM     12  O   UNL     1      12.406 -15.136 -44.861  1.00  0.00    -0.493 OA
ATOM     13  C   UNL     1      11.970 -14.952 -46.200  1.00  0.00     0.278 C 
ENDBRANCH   3  12
BRANCH   5  14
ATOM     14  O   UNL     1      13.093 -15.782 -42.432  1.00  0.00    -0.490 OA
BRANCH  14  15
ATOM     15  C   UNL     1      13.071 -16.945 -41.609  1.00  0.00     0.231 C 
BRANCH  15  16
ATOM     16  C   UNL     1      12.406 -18.131 -42.310  1.00  0.00     0.057 C 
BRANCH  16  17
ATOM     17  C   UNL     1      10.959 -18.330 -41.834  1.00  0.00     0.088 C 
BRANCH  17  18
ATOM     18  N   UNL     1       9.907 -18.233 -42.853  1.00  0.00    -0.299 NA
ATOM     19  C   UNL     1       8.896 -17.200 -42.567  1.00  0.00     0.113 C 
ATOM     20  C   UNL     1      10.421 -18.054 -44.222  1.00  0.00     0.113 C 
ATOM     21  C   UNL     1       7.778 -17.231 -43.622  1.00  0.00     0.175 C 
ATOM     22  C   UNL     1       9.269 -18.063 -45.239  1.00  0.00     0.175 C 
ATOM     23  O   UNL     1       8.305 -17.043 -44.944  1.00  0.00    -0.379 OA
ENDBRANCH  17  18
ENDBRANCH  16  17
ENDBRANCH  15  16
ENDBRANCH  14  15
ENDBRANCH   5  14
ENDBRANCH   1   2
BRANCH   1  24
ATOM     24  C   UNL     1       6.929 -12.624 -44.775  1.00  0.00     0.163 A 
ATOM     25  C   UNL     1       6.648 -13.972 -44.989  1.00  0.00     0.052 A 
ATOM     26  C   UNL     1       5.908 -11.688 -44.940  1.00  0.00     0.167 A 
ATOM     27  C   UNL     1       5.358 -14.368 -45.371  1.00  0.00     0.030 A 
ATOM     28  C   UNL     1       4.628 -12.076 -45.326  1.00  0.00     0.069 A 
ATOM     29  C   UNL     1       4.340 -13.427 -45.538  1.00  0.00     0.044 A 
ATOM     30  F   UNL     1       6.152 -10.384 -44.743  1.00  0.00    -0.203 F 
BRANCH  29  31
ATOM     31  N   UNL     1       3.022 -13.752 -45.910  1.00  0.00    -0.325 N 
ATOM     32  C   UNL     1       1.981 -14.113 -45.079  1.00  0.00     0.240 C 
ATOM     33  O   UNL     1       1.982 -14.197 -43.860  1.00  0.00    -0.273 OA
ATOM     34  H   UNL     1       2.792 -13.665 -46.895  1.00  0.00     0.169 HD
BRANCH  32  35
ATOM     35  C   UNL     1       0.706 -14.380 -45.818  1.00  0.00     0.128 C 
ATOM     36  C   UNL     1       0.588 -13.887 -47.261  1.00  0.00     0.028 C 
ATOM     37  C   UNL     1      -0.163 -13.175 -46.182  1.00  0.00     0.028 C 
BRANCH  35  38
ATOM     38  C   UNL     1       0.021 -15.666 -45.469  1.00  0.00     0.240 C 
ATOM     39  O   UNL     1      -0.131 -16.508 -46.344  1.00  0.00    -0.274 OA
ATOM     40  N   UNL     1      -0.378 -15.727 -44.150  1.00  0.00    -0.325 N 
ATOM     41  H   UNL     1      -0.189 -14.903 -43.589  1.00  0.00     0.169 HD
BRANCH  40  42
ATOM     42  C   UNL     1      -1.066 -16.774 -43.508  1.00  0.00     0.041 A 
ATOM     43  C   UNL     1      -2.438 -17.008 -43.650  1.00  0.00     0.029 A 
ATOM     44  C   UNL     1      -0.315 -17.621 -42.683  1.00  0.00     0.029 A 
ATOM     45  C   UNL     1      -3.049 -18.066 -42.970  1.00  0.00     0.041 A 
ATOM     46  C   UNL     1      -0.925 -18.680 -42.006  1.00  0.00     0.041 A 
ATOM     47  C   UNL     1      -2.289 -18.891 -42.154  1.00  0.00     0.123 A 
ATOM     48  F   UNL     1      -2.877 -19.898 -41.496  1.00  0.00    -0.207 F 
ENDBRANCH  40  42
ENDBRANCH  35  38
ENDBRANCH  32  35
ENDBRANCH  29  31
ENDBRANCH   1  24
TORSDOF 12
ENDMDL
MODEL 7
REMARK minimizedAffinity -8.89459324
REMARK minimizedRMSD -1
REMARK SMILES COc1cc2c(Oc3ccc(NC(=O)C4(C(=O)Nc5ccc(F)cc5)CC4)cc3F)ccnc2cc1OCCCN1CCOCC1
REMARK SMILES IDX 7 1 6 2 3 3 4 4 36 5 5 6 35 7 34 8 31 9 33 10 32 11 2 12
REMARK SMILES IDX 1 13 37 14 38 15 39 16 40 17 41 18 42 19 46 20 43 21 45 22
REMARK SMILES IDX 44 23 8 24 9 25 29 26 10 27 28 28 11 29 30 30 12 31 13 32
REMARK SMILES IDX 14 33 15 35 26 36 27 37 16 38 17 39 18 40 19 42 20 43 25 44
REMARK SMILES IDX 21 45 24 46 22 47 23 48
REMARK H PARENT 12 34 18 41
ROOT
ATOM      1  O   UNL     1       1.871 -12.362 -45.722  1.00  0.00    -0.454 OA
ENDROOT
BRANCH   1   2
ATOM      2  C   UNL     1       0.685 -11.709 -45.979  1.00  0.00     0.138 A 
ATOM      3  C   UNL     1       1.243  -8.250 -44.621  1.00  0.00     0.161 A 
ATOM      4  C   UNL     1       1.483  -9.584 -44.953  1.00  0.00     0.064 A 
ATOM      5  C   UNL     1       0.004  -7.675 -44.949  1.00  0.00     0.163 A 
ATOM      6  C   UNL     1       0.502 -10.361 -45.610  1.00  0.00     0.047 A 
ATOM      7  C   UNL     1      -0.961  -8.450 -45.601  1.00  0.00     0.079 A 
ATOM      8  C   UNL     1      -0.733  -9.777 -45.944  1.00  0.00     0.078 A 
ATOM      9  C   UNL     1      -0.286 -12.392 -46.703  1.00  0.00     0.068 A 
ATOM     10  N   UNL     1      -1.698 -10.449 -46.599  1.00  0.00    -0.256 NA
ATOM     11  C   UNL     1      -1.457 -11.723 -46.975  1.00  0.00     0.115 A 
BRANCH   3  12
ATOM     12  O   UNL     1       2.143  -7.432 -43.986  1.00  0.00    -0.493 OA
ATOM     13  C   UNL     1       3.402  -7.985 -43.630  1.00  0.00     0.278 C 
ENDBRANCH   3  12
BRANCH   5  14
ATOM     14  O   UNL     1      -0.151  -6.360 -44.598  1.00  0.00    -0.490 OA
BRANCH  14  15
ATOM     15  C   UNL     1      -0.440  -5.383 -45.593  1.00  0.00     0.231 C 
BRANCH  15  16
ATOM     16  C   UNL     1      -1.936  -5.071 -45.673  1.00  0.00     0.057 C 
BRANCH  16  17
ATOM     17  C   UNL     1      -2.634  -5.300 -44.324  1.00  0.00     0.088 C 
BRANCH  17  18
ATOM     18  N   UNL     1      -3.965  -5.917 -44.362  1.00  0.00    -0.299 NA
ATOM     19  C   UNL     1      -4.195  -6.762 -45.548  1.00  0.00     0.113 C 
ATOM     20  C   UNL     1      -4.302  -6.675 -43.145  1.00  0.00     0.113 C 
ATOM     21  C   UNL     1      -5.640  -7.286 -45.566  1.00  0.00     0.175 C 
ATOM     22  C   UNL     1      -5.744  -7.203 -43.217  1.00  0.00     0.175 C 
ATOM     23  O   UNL     1      -5.938  -8.029 -44.374  1.00  0.00    -0.379 OA
ENDBRANCH  17  18
ENDBRANCH  16  17
ENDBRANCH  15  16
ENDBRANCH  14  15
ENDBRANCH   5  14
ENDBRANCH   1   2
BRANCH   1  24
ATOM     24  C   UNL     1       1.821 -13.433 -44.855  1.00  0.00     0.163 A 
ATOM     25  C   UNL     1       0.781 -13.671 -43.958  1.00  0.00     0.052 A 
ATOM     26  C   UNL     1       2.858 -14.360 -44.947  1.00  0.00     0.167 A 
ATOM     27  C   UNL     1       0.792 -14.824 -43.161  1.00  0.00     0.030 A 
ATOM     28  C   UNL     1       2.877 -15.504 -44.152  1.00  0.00     0.069 A 
ATOM     29  C   UNL     1       1.835 -15.749 -43.254  1.00  0.00     0.044 A 
ATOM     30  F   UNL     1       3.873 -14.155 -45.799  1.00  0.00    -0.203 F 
BRANCH  29  31
ATOM     31  N   UNL     1       1.907 -16.932 -42.494  1.00  0.00    -0.325 N 
ATOM     32  C   UNL     1       2.986 -17.400 -41.772  1.00  0.00     0.240 C 
ATOM     33  O   UNL     1       4.080 -16.876 -41.623  1.00  0.00    -0.273 OA
ATOM     34  H   UNL     1       1.056 -17.481 -42.424  1.00  0.00     0.169 HD
BRANCH  32  35
ATOM     35  C   UNL     1       2.706 -18.692 -41.069  1.00  0.00     0.128 C 
ATOM     36  C   UNL     1       3.772 -19.247 -40.124  1.00  0.00     0.028 C 
ATOM     37  C   UNL     1       3.560 -19.903 -41.451  1.00  0.00     0.028 C 
BRANCH  35  38
ATOM     38  C   UNL     1       1.271 -18.926 -40.705  1.00  0.00     0.240 C 
ATOM     39  O   UNL     1       0.918 -18.732 -39.550  1.00  0.00    -0.274 OA
ATOM     40  N   UNL     1       0.507 -19.362 -41.768  1.00  0.00    -0.325 N 
ATOM     41  H   UNL     1       1.000 -19.496 -42.645  1.00  0.00     0.169 HD
BRANCH  40  42
ATOM     42  C   UNL     1      -0.860 -19.697 -41.764  1.00  0.00     0.041 A 
ATOM     43  C   UNL     1      -1.350 -20.969 -41.450  1.00  0.00     0.029 A 
ATOM     44  C   UNL     1      -1.768 -18.683 -42.093  1.00  0.00     0.029 A 
ATOM     45  C   UNL     1      -2.724 -21.224 -41.477  1.00  0.00     0.041 A 
ATOM     46  C   UNL     1      -3.141 -18.937 -42.117  1.00  0.00     0.041 A 
ATOM     47  C   UNL     1      -3.607 -20.208 -41.811  1.00  0.00     0.123 A 
ATOM     48  F   UNL     1      -4.923 -20.456 -41.845  1.00  0.00    -0.207 F 
ENDBRANCH  40  42
ENDBRANCH  35  38
ENDBRANCH  32  35
ENDBRANCH  29  31
ENDBRANCH   1  24
TORSDOF 12
ENDMDL
MODEL 8
REMARK minimizedAffinity -8.87621307
REMARK minimizedRMSD -1
REMARK SMILES COc1cc2c(Oc3ccc(NC(=O)C4(C(=O)Nc5ccc(F)cc5)CC4)cc3F)ccnc2cc1OCCCN1CCOCC1
REMARK SMILES IDX 7 1 6 2 3 3 4 4 36 5 5 6 35 7 34 8 31 9 33 10 32 11 2 12
REMARK SMILES IDX 1 13 37 14 38 15 39 16 40 17 41 18 42 19 46 20 43 21 45 22
REMARK SMILES IDX 44 23 8 24 9 25 29 26 10 27 28 28 11 29 30 30 12 31 13 32
REMARK SMILES IDX 14 33 15 35 26 36 27 37 16 38 17 39 18 40 19 42 20 43 25 44
REMARK SMILES IDX 21 45 24 46 22 47 23 48
REMARK H PARENT 12 34 18 41
ROOT
ATOM      1  O   UNL     1       6.816 -12.294 -45.655  1.00  0.00    -0.454 OA
ENDROOT
BRANCH   1   2
ATOM      2  C   UNL     1       6.541 -10.990 -45.304  1.00  0.00     0.138 A 
ATOM      3  C   UNL     1       2.810 -10.724 -45.658  1.00  0.00     0.161 A 
ATOM      4  C   UNL     1       4.094 -11.269 -45.679  1.00  0.00     0.064 A 
ATOM      5  C   UNL     1       2.639  -9.387 -45.262  1.00  0.00     0.163 A 
ATOM      6  C   UNL     1       5.220 -10.497 -45.312  1.00  0.00     0.047 A 
ATOM      7  C   UNL     1       3.758  -8.631 -44.899  1.00  0.00     0.079 A 
ATOM      8  C   UNL     1       5.042  -9.163 -44.908  1.00  0.00     0.078 A 
ATOM      9  C   UNL     1       7.595 -10.207 -44.847  1.00  0.00     0.068 A 
ATOM     10  N   UNL     1       6.065  -8.383 -44.514  1.00  0.00    -0.256 NA
ATOM     11  C   UNL     1       7.306  -8.914 -44.476  1.00  0.00     0.115 A 
BRANCH   3  12
ATOM     12  O   UNL     1       1.670 -11.408 -45.998  1.00  0.00    -0.493 OA
ATOM     13  C   UNL     1       1.588 -12.779 -45.638  1.00  0.00     0.278 C 
ENDBRANCH   3  12
BRANCH   5  14
ATOM     14  O   UNL     1       1.347  -8.930 -45.260  1.00  0.00    -0.490 OA
BRANCH  14  15
ATOM     15  C   UNL     1       1.079  -7.543 -45.445  1.00  0.00     0.231 C 
BRANCH  15  16
ATOM     16  C   UNL     1      -0.325  -7.163 -44.968  1.00  0.00     0.057 C 
BRANCH  16  17
ATOM     17  C   UNL     1      -1.100  -8.388 -44.458  1.00  0.00     0.088 C 
BRANCH  17  18
ATOM     18  N   UNL     1      -2.527  -8.197 -44.171  1.00  0.00    -0.299 NA
ATOM     19  C   UNL     1      -3.135  -9.305 -43.412  1.00  0.00     0.113 C 
ATOM     20  C   UNL     1      -2.832  -6.919 -43.505  1.00  0.00     0.113 C 
ATOM     21  C   UNL     1      -4.646  -9.080 -43.243  1.00  0.00     0.175 C 
ATOM     22  C   UNL     1      -4.350  -6.748 -43.331  1.00  0.00     0.175 C 
ATOM     23  O   UNL     1      -4.914  -7.834 -42.583  1.00  0.00    -0.379 OA
ENDBRANCH  17  18
ENDBRANCH  16  17
ENDBRANCH  15  16
ENDBRANCH  14  15
ENDBRANCH   5  14
ENDBRANCH   1   2
BRANCH   1  24
ATOM     24  C   UNL     1       6.650 -13.252 -44.679  1.00  0.00     0.163 A 
ATOM     25  C   UNL     1       7.225 -13.192 -43.411  1.00  0.00     0.052 A 
ATOM     26  C   UNL     1       5.793 -14.310 -44.980  1.00  0.00     0.167 A 
ATOM     27  C   UNL     1       6.945 -14.188 -42.465  1.00  0.00     0.030 A 
ATOM     28  C   UNL     1       5.517 -15.305 -44.046  1.00  0.00     0.069 A 
ATOM     29  C   UNL     1       6.088 -15.247 -42.772  1.00  0.00     0.044 A 
ATOM     30  F   UNL     1       5.228 -14.395 -46.194  1.00  0.00    -0.203 F 
BRANCH  29  31
ATOM     31  N   UNL     1       5.753 -16.275 -41.871  1.00  0.00    -0.325 N 
ATOM     32  C   UNL     1       6.095 -17.609 -41.956  1.00  0.00     0.240 C 
ATOM     33  O   UNL     1       6.776 -18.161 -42.808  1.00  0.00    -0.273 OA
ATOM     34  H   UNL     1       5.245 -16.001 -41.036  1.00  0.00     0.169 HD
BRANCH  32  35
ATOM     35  C   UNL     1       5.578 -18.422 -40.810  1.00  0.00     0.128 C 
ATOM     36  C   UNL     1       5.597 -17.799 -39.413  1.00  0.00     0.028 C 
ATOM     37  C   UNL     1       6.587 -18.868 -39.749  1.00  0.00     0.028 C 
BRANCH  35  38
ATOM     38  C   UNL     1       4.443 -19.344 -41.139  1.00  0.00     0.240 C 
ATOM     39  O   UNL     1       4.698 -20.490 -41.485  1.00  0.00    -0.274 OA
ATOM     40  N   UNL     1       3.207 -18.746 -41.016  1.00  0.00    -0.325 N 
ATOM     41  H   UNL     1       3.211 -17.767 -40.747  1.00  0.00     0.169 HD
BRANCH  40  42
ATOM     42  C   UNL     1       1.946 -19.317 -41.273  1.00  0.00     0.041 A 
ATOM     43  C   UNL     1       1.690 -20.692 -41.230  1.00  0.00     0.029 A 
ATOM     44  C   UNL     1       0.899 -18.441 -41.587  1.00  0.00     0.029 A 
ATOM     45  C   UNL     1       0.410 -21.181 -41.507  1.00  0.00     0.041 A 
ATOM     46  C   UNL     1      -0.380 -18.931 -41.861  1.00  0.00     0.041 A 
ATOM     47  C   UNL     1      -0.613 -20.298 -41.821  1.00  0.00     0.123 A 
ATOM     48  F   UNL     1      -1.836 -20.769 -42.095  1.00  0.00    -0.207 F 
ENDBRANCH  40  42
ENDBRANCH  35  38
ENDBRANCH  32  35
ENDBRANCH  29  31
ENDBRANCH   1  24
TORSDOF 12
ENDMDL
MODEL 9
REMARK minimizedAffinity -8.82164097
REMARK minimizedRMSD -1
REMARK SMILES COc1cc2c(Oc3ccc(NC(=O)C4(C(=O)Nc5ccc(F)cc5)CC4)cc3F)ccnc2cc1OCCCN1CCOCC1
REMARK SMILES IDX 7 1 6 2 3 3 4 4 36 5 5 6 35 7 34 8 31 9 33 10 32 11 2 12
REMARK SMILES IDX 1 13 37 14 38 15 39 16 40 17 41 18 42 19 46 20 43 21 45 22
REMARK SMILES IDX 44 23 8 24 9 25 29 26 10 27 28 28 11 29 30 30 12 31 13 32
REMARK SMILES IDX 14 33 15 35 26 36 27 37 16 38 17 39 18 40 19 42 20 43 25 44
REMARK SMILES IDX 21 45 24 46 22 47 23 48
REMARK H PARENT 12 34 18 41
ROOT
ATOM      1  O   UNL     1       7.995 -11.668 -43.912  1.00  0.00    -0.454 OA
ENDROOT
BRANCH   1   2
ATOM      2  C   UNL     1       7.809 -12.442 -42.788  1.00  0.00     0.138 A 
ATOM      3  C   UNL     1       7.263 -15.901 -44.150  1.00  0.00     0.161 A 
ATOM      4  C   UNL     1       7.493 -14.525 -44.117  1.00  0.00     0.064 A 
ATOM      5  C   UNL     1       7.109 -16.600 -42.942  1.00  0.00     0.163 A 
ATOM      6  C   UNL     1       7.571 -13.828 -42.890  1.00  0.00     0.047 A 
ATOM      7  C   UNL     1       7.189 -15.903 -41.732  1.00  0.00     0.079 A 
ATOM      8  C   UNL     1       7.426 -14.534 -41.683  1.00  0.00     0.078 A 
ATOM      9  C   UNL     1       7.964 -11.832 -41.548  1.00  0.00     0.068 A 
ATOM     10  N   UNL     1       7.522 -13.939 -40.480  1.00  0.00    -0.256 NA
ATOM     11  C   UNL     1       7.800 -12.618 -40.432  1.00  0.00     0.115 A 
BRANCH   3  12
ATOM     12  O   UNL     1       7.175 -16.647 -45.299  1.00  0.00    -0.493 OA
ATOM     13  C   UNL     1       6.834 -15.973 -46.501  1.00  0.00     0.278 C 
ENDBRANCH   3  12
BRANCH   5  14
ATOM     14  O   UNL     1       6.895 -17.948 -43.059  1.00  0.00    -0.490 OA
BRANCH  14  15
ATOM     15  C   UNL     1       5.580 -18.478 -42.923  1.00  0.00     0.231 C 
BRANCH  15  16
ATOM     16  C   UNL     1       5.348 -19.088 -41.538  1.00  0.00     0.057 C 
BRANCH  16  17
ATOM     17  C   UNL     1       4.494 -20.363 -41.618  1.00  0.00     0.088 C 
BRANCH  17  18
ATOM     18  N   UNL     1       3.197 -20.336 -40.933  1.00  0.00    -0.299 NA
ATOM     19  C   UNL     1       2.896 -19.050 -40.279  1.00  0.00     0.113 C 
ATOM     20  C   UNL     1       2.065 -20.729 -41.790  1.00  0.00     0.113 C 
ATOM     21  C   UNL     1       1.574 -19.136 -39.499  1.00  0.00     0.175 C 
ATOM     22  C   UNL     1       0.761 -20.775 -40.977  1.00  0.00     0.175 C 
ATOM     23  O   UNL     1       0.487 -19.510 -40.359  1.00  0.00    -0.379 OA
ENDBRANCH  17  18
ENDBRANCH  16  17
ENDBRANCH  15  16
ENDBRANCH  14  15
ENDBRANCH   5  14
ENDBRANCH   1   2
BRANCH   1  24
ATOM     24  C   UNL     1       7.055 -10.691 -44.162  1.00  0.00     0.163 A 
ATOM     25  C   UNL     1       7.097  -9.404 -43.628  1.00  0.00     0.052 A 
ATOM     26  C   UNL     1       6.042 -11.014 -45.063  1.00  0.00     0.167 A 
ATOM     27  C   UNL     1       6.126  -8.461 -43.993  1.00  0.00     0.030 A 
ATOM     28  C   UNL     1       5.071 -10.083 -45.424  1.00  0.00     0.069 A 
ATOM     29  C   UNL     1       5.111  -8.790 -44.895  1.00  0.00     0.044 A 
ATOM     30  F   UNL     1       5.975 -12.246 -45.590  1.00  0.00    -0.203 F 
BRANCH  29  31
ATOM     31  N   UNL     1       4.110  -7.894 -45.314  1.00  0.00    -0.325 N 
ATOM     32  C   UNL     1       2.850  -7.732 -44.775  1.00  0.00     0.240 C 
ATOM     33  O   UNL     1       2.359  -8.308 -43.816  1.00  0.00    -0.273 OA
ATOM     34  H   UNL     1       4.355  -7.257 -46.065  1.00  0.00     0.169 HD
BRANCH  32  35
ATOM     35  C   UNL     1       2.047  -6.673 -45.466  1.00  0.00     0.128 C 
ATOM     36  C   UNL     1       2.405  -6.321 -46.911  1.00  0.00     0.028 C 
ATOM     37  C   UNL     1       2.759  -5.365 -45.817  1.00  0.00     0.028 C 
BRANCH  35  38
ATOM     38  C   UNL     1       0.601  -6.609 -45.077  1.00  0.00     0.240 C 
ATOM     39  O   UNL     1       0.205  -5.641 -44.443  1.00  0.00    -0.274 OA
ATOM     40  N   UNL     1      -0.120  -7.708 -45.495  1.00  0.00    -0.325 N 
ATOM     41  H   UNL     1       0.406  -8.427 -45.982  1.00  0.00     0.169 HD
BRANCH  40  42
ATOM     42  C   UNL     1      -1.484  -7.975 -45.274  1.00  0.00     0.041 A 
ATOM     43  C   UNL     1      -2.506  -7.586 -46.147  1.00  0.00     0.029 A 
ATOM     44  C   UNL     1      -1.818  -8.674 -44.107  1.00  0.00     0.029 A 
ATOM     45  C   UNL     1      -3.840  -7.883 -45.851  1.00  0.00     0.041 A 
ATOM     46  C   UNL     1      -3.151  -8.972 -43.812  1.00  0.00     0.041 A 
ATOM     47  C   UNL     1      -4.151  -8.571 -44.687  1.00  0.00     0.123 A 
ATOM     48  F   UNL     1      -5.430  -8.846 -44.400  1.00  0.00    -0.207 F 
ENDBRANCH  40  42
ENDBRANCH  35  38
ENDBRANCH  32  35
ENDBRANCH  29  31
ENDBRANCH   1  24
TORSDOF 12
ENDMDL
MODEL 10
REMARK minimizedAffinity -8.78439522
REMARK minimizedRMSD -1
REMARK SMILES COc1cc2c(Oc3ccc(NC(=O)C4(C(=O)Nc5ccc(F)cc5)CC4)cc3F)ccnc2cc1OCCCN1CCOCC1
REMARK SMILES IDX 7 1 6 2 3 3 4 4 36 5 5 6 35 7 34 8 31 9 33 10 32 11 2 12
REMARK SMILES IDX 1 13 37 14 38 15 39 16 40 17 41 18 42 19 46 20 43 21 45 22
REMARK SMILES IDX 44 23 8 24 9 25 29 26 10 27 28 28 11 29 30 30 12 31 13 32
REMARK SMILES IDX 14 33 15 35 26 36 27 37 16 38 17 39 18 40 19 42 20 43 25 44
REMARK SMILES IDX 21 45 24 46 22 47 23 48
REMARK H PARENT 12 34 18 41
ROOT
ATOM      1  O   UNL     1       8.608 -16.197 -42.833  1.00  0.00    -0.454 OA
ENDROOT
BRANCH   1   2
ATOM      2  C   UNL     1       8.885 -15.494 -43.986  1.00  0.00     0.138 A 
ATOM      3  C   UNL     1       7.587 -12.040 -43.273  1.00  0.00     0.161 A 
ATOM      4  C   UNL     1       7.893 -13.390 -43.094  1.00  0.00     0.064 A 
ATOM      5  C   UNL     1       7.934 -11.413 -44.482  1.00  0.00     0.163 A 
ATOM      6  C   UNL     1       8.542 -14.131 -44.107  1.00  0.00     0.047 A 
ATOM      7  C   UNL     1       8.578 -12.154 -45.478  1.00  0.00     0.079 A 
ATOM      8  C   UNL     1       8.896 -13.496 -45.310  1.00  0.00     0.078 A 
ATOM      9  C   UNL     1       9.603 -16.143 -44.983  1.00  0.00     0.068 A 
ATOM     10  N   UNL     1       9.544 -14.134 -46.302  1.00  0.00    -0.256 NA
ATOM     11  C   UNL     1       9.896 -15.425 -46.120  1.00  0.00     0.115 A 
BRANCH   3  12
ATOM     12  O   UNL     1       6.961 -11.254 -42.339  1.00  0.00    -0.493 OA
ATOM     13  C   UNL     1       7.654 -10.986 -41.128  1.00  0.00     0.278 C 
ENDBRANCH   3  12
BRANCH   5  14
ATOM     14  O   UNL     1       7.608 -10.086 -44.576  1.00  0.00    -0.490 OA
BRANCH  14  15
ATOM     15  C   UNL     1       6.618  -9.657 -45.506  1.00  0.00     0.231 C 
BRANCH  15  16
ATOM     16  C   UNL     1       5.206  -9.748 -44.921  1.00  0.00     0.057 C 
BRANCH  16  17
ATOM     17  C   UNL     1       4.381 -10.849 -45.605  1.00  0.00     0.088 C 
BRANCH  17  18
ATOM     18  N   UNL     1       3.847 -11.909 -44.742  1.00  0.00    -0.299 NA
ATOM     19  C   UNL     1       2.409 -12.165 -44.934  1.00  0.00     0.113 C 
ATOM     20  C   UNL     1       4.589 -13.179 -44.834  1.00  0.00     0.113 C 
ATOM     21  C   UNL     1       1.906 -13.212 -43.927  1.00  0.00     0.175 C 
ATOM     22  C   UNL     1       4.037 -14.204 -43.831  1.00  0.00     0.175 C 
ATOM     23  O   UNL     1       2.638 -14.441 -44.045  1.00  0.00    -0.379 OA
ENDBRANCH  17  18
ENDBRANCH  16  17
ENDBRANCH  15  16
ENDBRANCH  14  15
ENDBRANCH   5  14
ENDBRANCH   1   2
BRANCH   1  24
ATOM     24  C   UNL     1       7.382 -16.820 -42.760  1.00  0.00     0.163 A 
ATOM     25  C   UNL     1       6.986 -17.875 -43.581  1.00  0.00     0.052 A 
ATOM     26  C   UNL     1       6.523 -16.395 -41.748  1.00  0.00     0.167 A 
ATOM     27  C   UNL     1       5.739 -18.486 -43.386  1.00  0.00     0.030 A 
ATOM     28  C   UNL     1       5.280 -16.994 -41.555  1.00  0.00     0.069 A 
ATOM     29  C   UNL     1       4.880 -18.055 -42.372  1.00  0.00     0.044 A 
ATOM     30  F   UNL     1       6.877 -15.380 -40.946  1.00  0.00    -0.203 F 
BRANCH  29  31
ATOM     31  N   UNL     1       3.620 -18.626 -42.113  1.00  0.00    -0.325 N 
ATOM     32  C   UNL     1       3.175 -19.172 -40.927  1.00  0.00     0.240 C 
ATOM     33  O   UNL     1       3.767 -19.246 -39.860  1.00  0.00    -0.273 OA
ATOM     34  H   UNL     1       2.940 -18.590 -42.866  1.00  0.00     0.169 HD
BRANCH  32  35
ATOM     35  C   UNL     1       1.768 -19.680 -41.005  1.00  0.00     0.128 C 
ATOM     36  C   UNL     1       1.316 -20.718 -39.978  1.00  0.00     0.028 C 
ATOM     37  C   UNL     1       1.568 -21.147 -41.388  1.00  0.00     0.028 C 
BRANCH  35  38
ATOM     38  C   UNL     1       0.752 -18.682 -41.473  1.00  0.00     0.240 C 
ATOM     39  O   UNL     1       1.059 -17.498 -41.497  1.00  0.00    -0.274 OA
ATOM     40  N   UNL     1      -0.453 -19.257 -41.817  1.00  0.00    -0.325 N 
ATOM     41  H   UNL     1      -0.518 -20.263 -41.692  1.00  0.00     0.169 HD
BRANCH  40  42
ATOM     42  C   UNL     1      -1.618 -18.608 -42.266  1.00  0.00     0.041 A 
ATOM     43  C   UNL     1      -1.622 -17.587 -43.223  1.00  0.00     0.029 A 
ATOM     44  C   UNL     1      -2.836 -19.024 -41.712  1.00  0.00     0.029 A 
ATOM     45  C   UNL     1      -2.824 -16.986 -43.609  1.00  0.00     0.041 A 
ATOM     46  C   UNL     1      -4.036 -18.424 -42.101  1.00  0.00     0.041 A 
ATOM     47  C   UNL     1      -4.019 -17.407 -43.045  1.00  0.00     0.123 A 
ATOM     48  F   UNL     1      -5.168 -16.824 -43.410  1.00  0.00    -0.207 F 
ENDBRANCH  40  42
ENDBRANCH  35  38
ENDBRANCH  32  35
ENDBRANCH  29  31
ENDBRANCH   1  24
TORSDOF 12
ENDMDL
MODEL 11
REMARK minimizedAffinity -8.77696037
REMARK minimizedRMSD -1
REMARK SMILES COc1cc2c(Oc3ccc(NC(=O)C4(C(=O)Nc5ccc(F)cc5)CC4)cc3F)ccnc2cc1OCCCN1CCOCC1
REMARK SMILES IDX 7 1 6 2 3 3 4 4 36 5 5 6 35 7 34 8 31 9 33 10 32 11 2 12
REMARK SMILES IDX 1 13 37 14 38 15 39 16 40 17 41 18 42 19 46 20 43 21 45 22
REMARK SMILES IDX 44 23 8 24 9 25 29 26 10 27 28 28 11 29 30 30 12 31 13 32
REMARK SMILES IDX 14 33 15 35 26 36 27 37 16 38 17 39 18 40 19 42 20 43 25 44
REMARK SMILES IDX 21 45 24 46 22 47 23 48
REMARK H PARENT 12 34 18 41
ROOT
ATOM      1  O   UNL     1       7.640  -9.527 -45.106  1.00  0.00    -0.454 OA
ENDROOT
BRANCH   1   2
ATOM      2  C   UNL     1       6.742  -9.020 -46.020  1.00  0.00     0.138 A 
ATOM      3  C   UNL     1       3.927  -7.721 -43.896  1.00  0.00     0.161 A 
ATOM      4  C   UNL     1       5.136  -8.323 -44.247  1.00  0.00     0.064 A 
ATOM      5  C   UNL     1       3.093  -7.216 -44.908  1.00  0.00     0.163 A 
ATOM      6  C   UNL     1       5.531  -8.431 -45.600  1.00  0.00     0.047 A 
ATOM      7  C   UNL     1       3.493  -7.326 -46.243  1.00  0.00     0.079 A 
ATOM      8  C   UNL     1       4.697  -7.915 -46.607  1.00  0.00     0.078 A 
ATOM      9  C   UNL     1       7.113  -9.015 -47.359  1.00  0.00     0.068 A 
ATOM     10  N   UNL     1       5.028  -7.955 -47.911  1.00  0.00    -0.256 NA
ATOM     11  C   UNL     1       6.220  -8.484 -48.261  1.00  0.00     0.115 A 
BRANCH   3  12
ATOM     12  O   UNL     1       3.475  -7.577 -42.608  1.00  0.00    -0.493 OA
ATOM     13  C   UNL     1       4.351  -6.980 -41.663  1.00  0.00     0.278 C 
ENDBRANCH   3  12
BRANCH   5  14
ATOM     14  O   UNL     1       1.929  -6.633 -44.481  1.00  0.00    -0.490 OA
BRANCH  14  15
ATOM     15  C   UNL     1       0.760  -6.694 -45.292  1.00  0.00     0.231 C 
BRANCH  15  16
ATOM     16  C   UNL     1      -0.375  -5.836 -44.726  1.00  0.00     0.057 C 
BRANCH  16  17
ATOM     17  C   UNL     1      -1.729  -6.557 -44.821  1.00  0.00     0.088 C 
BRANCH  17  18
ATOM     18  N   UNL     1      -1.695  -8.004 -45.060  1.00  0.00    -0.299 NA
ATOM     19  C   UNL     1      -1.900  -8.813 -43.846  1.00  0.00     0.113 C 
ATOM     20  C   UNL     1      -2.623  -8.453 -46.113  1.00  0.00     0.113 C 
ATOM     21  C   UNL     1      -1.747 -10.310 -44.161  1.00  0.00     0.175 C 
ATOM     22  C   UNL     1      -2.457  -9.958 -46.376  1.00  0.00     0.175 C 
ATOM     23  O   UNL     1      -2.670 -10.722 -45.181  1.00  0.00    -0.379 OA
ENDBRANCH  17  18
ENDBRANCH  16  17
ENDBRANCH  15  16
ENDBRANCH  14  15
ENDBRANCH   5  14
ENDBRANCH   1   2
BRANCH   1  24
ATOM     24  C   UNL     1       7.386 -10.789 -44.613  1.00  0.00     0.163 A 
ATOM     25  C   UNL     1       7.094 -11.899 -45.405  1.00  0.00     0.052 A 
ATOM     26  C   UNL     1       7.499 -10.956 -43.234  1.00  0.00     0.167 A 
ATOM     27  C   UNL     1       6.912 -13.156 -44.811  1.00  0.00     0.030 A 
ATOM     28  C   UNL     1       7.312 -12.201 -42.639  1.00  0.00     0.069 A 
ATOM     29  C   UNL     1       7.023 -13.318 -43.428  1.00  0.00     0.044 A 
ATOM     30  F   UNL     1       7.776  -9.905 -42.448  1.00  0.00    -0.203 F 
BRANCH  29  31
ATOM     31  N   UNL     1       6.863 -14.549 -42.765  1.00  0.00    -0.325 N 
ATOM     32  C   UNL     1       5.699 -15.271 -42.608  1.00  0.00     0.240 C 
ATOM     33  O   UNL     1       4.583 -15.008 -43.032  1.00  0.00    -0.273 OA
ATOM     34  H   UNL     1       7.706 -14.984 -42.402  1.00  0.00     0.169 HD
BRANCH  32  35
ATOM     35  C   UNL     1       5.898 -16.551 -41.855  1.00  0.00     0.128 C 
ATOM     36  C   UNL     1       6.526 -16.480 -40.462  1.00  0.00     0.028 C 
ATOM     37  C   UNL     1       7.337 -17.004 -41.603  1.00  0.00     0.028 C 
BRANCH  35  38
ATOM     38  C   UNL     1       4.856 -17.602 -42.090  1.00  0.00     0.240 C 
ATOM     39  O   UNL     1       4.954 -18.315 -43.079  1.00  0.00    -0.274 OA
ATOM     40  N   UNL     1       3.873 -17.616 -41.123  1.00  0.00    -0.325 N 
ATOM     41  H   UNL     1       3.954 -16.912 -40.396  1.00  0.00     0.169 HD
BRANCH  40  42
ATOM     42  C   UNL     1       2.742 -18.452 -41.059  1.00  0.00     0.041 A 
ATOM     43  C   UNL     1       2.748 -19.727 -40.484  1.00  0.00     0.029 A 
ATOM     44  C   UNL     1       1.551 -17.960 -41.606  1.00  0.00     0.029 A 
ATOM     45  C   UNL     1       1.584 -20.501 -40.467  1.00  0.00     0.041 A 
ATOM     46  C   UNL     1       0.387 -18.732 -41.587  1.00  0.00     0.041 A 
ATOM     47  C   UNL     1       0.415 -19.998 -41.020  1.00  0.00     0.123 A 
ATOM     48  F   UNL     1      -0.698 -20.743 -41.011  1.00  0.00    -0.207 F 
ENDBRANCH  40  42
ENDBRANCH  35  38
ENDBRANCH  32  35
ENDBRANCH  29  31
ENDBRANCH   1  24
TORSDOF 12
ENDMDL
MODEL 12
REMARK minimizedAffinity -8.70903492
REMARK minimizedRMSD -1
REMARK SMILES COc1cc2c(Oc3ccc(NC(=O)C4(C(=O)Nc5ccc(F)cc5)CC4)cc3F)ccnc2cc1OCCCN1CCOCC1
REMARK SMILES IDX 7 1 6 2 3 3 4 4 36 5 5 6 35 7 34 8 31 9 33 10 32 11 2 12
REMARK SMILES IDX 1 13 37 14 38 15 39 16 40 17 41 18 42 19 46 20 43 21 45 22
REMARK SMILES IDX 44 23 8 24 9 25 29 26 10 27 28 28 11 29 30 30 12 31 13 32
REMARK SMILES IDX 14 33 15 35 26 36 27 37 16 38 17 39 18 40 19 42 20 43 25 44
REMARK SMILES IDX 21 45 24 46 22 47 23 48
REMARK H PARENT 12 34 18 41
ROOT
ATOM      1  O   UNL     1       3.046 -12.939 -45.986  1.00  0.00    -0.454 OA
ENDROOT
BRANCH   1   2
ATOM      2  C   UNL     1       1.733 -12.561 -46.169  1.00  0.00     0.138 A 
ATOM      3  C   UNL     1       1.545  -9.154 -44.595  1.00  0.00     0.161 A 
ATOM      4  C   UNL     1       2.069 -10.375 -45.022  1.00  0.00     0.064 A 
ATOM      5  C   UNL     1       0.196  -8.859 -44.852  1.00  0.00     0.163 A 
ATOM      6  C   UNL     1       1.264 -11.314 -45.705  1.00  0.00     0.047 A 
ATOM      7  C   UNL     1      -0.592  -9.793 -45.531  1.00  0.00     0.079 A 
ATOM      8  C   UNL     1      -0.083 -11.009 -45.969  1.00  0.00     0.078 A 
ATOM      9  C   UNL     1       0.915 -13.402 -46.913  1.00  0.00     0.068 A 
ATOM     10  N   UNL     1      -0.895 -11.844 -46.643  1.00  0.00    -0.256 NA
ATOM     11  C   UNL     1      -0.387 -13.004 -47.111  1.00  0.00     0.115 A 
BRANCH   3  12
ATOM     12  O   UNL     1       2.261  -8.191 -43.928  1.00  0.00    -0.493 OA
ATOM     13  C   UNL     1       3.299  -7.530 -44.636  1.00  0.00     0.278 C 
ENDBRANCH   3  12
BRANCH   5  14
ATOM     14  O   UNL     1      -0.239  -7.637 -44.409  1.00  0.00    -0.490 OA
BRANCH  14  15
ATOM     15  C   UNL     1      -0.726  -6.672 -45.336  1.00  0.00     0.231 C 
BRANCH  15  16
ATOM     16  C   UNL     1      -2.222  -6.405 -45.154  1.00  0.00     0.057 C 
BRANCH  16  17
ATOM     17  C   UNL     1      -2.691  -6.758 -43.734  1.00  0.00     0.088 C 
BRANCH  17  18
ATOM     18  N   UNL     1      -3.724  -7.793 -43.615  1.00  0.00    -0.299 NA
ATOM     19  C   UNL     1      -3.209  -9.101 -43.172  1.00  0.00     0.113 C 
ATOM     20  C   UNL     1      -4.862  -7.400 -42.766  1.00  0.00     0.113 C 
ATOM     21  C   UNL     1      -4.330 -10.152 -43.172  1.00  0.00     0.175 C 
ATOM     22  C   UNL     1      -5.946  -8.490 -42.773  1.00  0.00     0.175 C 
ATOM     23  O   UNL     1      -5.420  -9.749 -42.329  1.00  0.00    -0.379 OA
ENDBRANCH  17  18
ENDBRANCH  16  17
ENDBRANCH  15  16
ENDBRANCH  14  15
ENDBRANCH   5  14
ENDBRANCH   1   2
BRANCH   1  24
ATOM     24  C   UNL     1       3.286 -13.950 -45.081  1.00  0.00     0.163 A 
ATOM     25  C   UNL     1       2.341 -14.439 -44.180  1.00  0.00     0.052 A 
ATOM     26  C   UNL     1       4.542 -14.552 -45.134  1.00  0.00     0.167 A 
ATOM     27  C   UNL     1       2.664 -15.515 -43.341  1.00  0.00     0.030 A 
ATOM     28  C   UNL     1       4.869 -15.616 -44.297  1.00  0.00     0.069 A 
ATOM     29  C   UNL     1       3.925 -16.113 -43.395  1.00  0.00     0.044 A 
ATOM     30  F   UNL     1       5.471 -14.100 -45.989  1.00  0.00    -0.203 F 
BRANCH  29  31
ATOM     31  N   UNL     1       4.315 -17.200 -42.591  1.00  0.00    -0.325 N 
ATOM     32  C   UNL     1       5.223 -17.193 -41.553  1.00  0.00     0.240 C 
ATOM     33  O   UNL     1       5.849 -16.244 -41.104  1.00  0.00    -0.273 OA
ATOM     34  H   UNL     1       3.840 -18.083 -42.757  1.00  0.00     0.169 HD
BRANCH  32  35
ATOM     35  C   UNL     1       5.387 -18.533 -40.906  1.00  0.00     0.128 C 
ATOM     36  C   UNL     1       6.140 -18.608 -39.577  1.00  0.00     0.028 C 
ATOM     37  C   UNL     1       6.802 -19.108 -40.821  1.00  0.00     0.028 C 
BRANCH  35  38
ATOM     38  C   UNL     1       4.248 -19.486 -41.108  1.00  0.00     0.240 C 
ATOM     39  O   UNL     1       4.497 -20.669 -41.297  1.00  0.00    -0.274 OA
ATOM     40  N   UNL     1       3.014 -18.871 -41.067  1.00  0.00    -0.325 N 
ATOM     41  H   UNL     1       3.022 -17.865 -40.933  1.00  0.00     0.169 HD
BRANCH  40  42
ATOM     42  C   UNL     1       1.751 -19.466 -41.245  1.00  0.00     0.041 A 
ATOM     43  C   UNL     1       1.514 -20.840 -41.135  1.00  0.00     0.029 A 
ATOM     44  C   UNL     1       0.680 -18.614 -41.547  1.00  0.00     0.029 A 
ATOM     45  C   UNL     1       0.229 -21.354 -41.336  1.00  0.00     0.041 A 
ATOM     46  C   UNL     1      -0.604 -19.128 -41.745  1.00  0.00     0.041 A 
ATOM     47  C   UNL     1      -0.817 -20.496 -41.640  1.00  0.00     0.123 A 
ATOM     48  F   UNL     1      -2.045 -20.990 -41.841  1.00  0.00    -0.207 F 
ENDBRANCH  40  42
ENDBRANCH  35  38
ENDBRANCH  32  35
ENDBRANCH  29  31
ENDBRANCH   1  24
TORSDOF 12
ENDMDL
MODEL 13
REMARK minimizedAffinity -8.70070457
REMARK minimizedRMSD -1
REMARK SMILES COc1cc2c(Oc3ccc(NC(=O)C4(C(=O)Nc5ccc(F)cc5)CC4)cc3F)ccnc2cc1OCCCN1CCOCC1
REMARK SMILES IDX 7 1 6 2 3 3 4 4 36 5 5 6 35 7 34 8 31 9 33 10 32 11 2 12
REMARK SMILES IDX 1 13 37 14 38 15 39 16 40 17 41 18 42 19 46 20 43 21 45 22
REMARK SMILES IDX 44 23 8 24 9 25 29 26 10 27 28 28 11 29 30 30 12 31 13 32
REMARK SMILES IDX 14 33 15 35 26 36 27 37 16 38 17 39 18 40 19 42 20 43 25 44
REMARK SMILES IDX 21 45 24 46 22 47 23 48
REMARK H PARENT 12 34 18 41
ROOT
ATOM      1  O   UNL     1       6.484 -14.152 -44.750  1.00  0.00    -0.454 OA
ENDROOT
BRANCH   1   2
ATOM      2  C   UNL     1       6.127 -15.366 -45.294  1.00  0.00     0.138 A 
ATOM      3  C   UNL     1       6.306 -17.748 -42.393  1.00  0.00     0.161 A 
ATOM      4  C   UNL     1       6.385 -16.562 -43.124  1.00  0.00     0.064 A 
ATOM      5  C   UNL     1       5.909 -18.928 -43.044  1.00  0.00     0.163 A 
ATOM      6  C   UNL     1       6.075 -16.532 -44.502  1.00  0.00     0.047 A 
ATOM      7  C   UNL     1       5.603 -18.889 -44.407  1.00  0.00     0.079 A 
ATOM      8  C   UNL     1       5.669 -17.714 -45.146  1.00  0.00     0.078 A 
ATOM      9  C   UNL     1       5.723 -15.385 -46.624  1.00  0.00     0.068 A 
ATOM     10  N   UNL     1       5.328 -17.750 -46.447  1.00  0.00    -0.256 NA
ATOM     11  C   UNL     1       5.346 -16.598 -47.152  1.00  0.00     0.115 A 
BRANCH   3  12
ATOM     12  O   UNL     1       6.589 -17.857 -41.055  1.00  0.00    -0.493 OA
ATOM     13  C   UNL     1       5.736 -17.183 -40.141  1.00  0.00     0.278 C 
ENDBRANCH   3  12
BRANCH   5  14
ATOM     14  O   UNL     1       5.848 -20.048 -42.256  1.00  0.00    -0.490 OA
BRANCH  14  15
ATOM     15  C   UNL     1       4.629 -20.776 -42.141  1.00  0.00     0.231 C 
BRANCH  15  16
ATOM     16  C   UNL     1       3.584 -20.016 -41.320  1.00  0.00     0.057 C 
BRANCH  16  17
ATOM     17  C   UNL     1       2.296 -20.837 -41.148  1.00  0.00     0.088 C 
BRANCH  17  18
ATOM     18  N   UNL     1       1.066 -20.266 -41.710  1.00  0.00    -0.299 NA
ATOM     19  C   UNL     1      -0.160 -20.970 -41.295  1.00  0.00     0.113 C 
ATOM     20  C   UNL     1       0.914 -18.822 -41.459  1.00  0.00     0.113 C 
ATOM     21  C   UNL     1      -1.389 -20.379 -42.004  1.00  0.00     0.175 C 
ATOM     22  C   UNL     1      -0.340 -18.280 -42.162  1.00  0.00     0.175 C 
ATOM     23  O   UNL     1      -1.520 -18.975 -41.734  1.00  0.00    -0.379 OA
ENDBRANCH  17  18
ENDBRANCH  16  17
ENDBRANCH  15  16
ENDBRANCH  14  15
ENDBRANCH   5  14
ENDBRANCH   1   2
BRANCH   1  24
ATOM     24  C   UNL     1       5.672 -13.076 -45.034  1.00  0.00     0.163 A 
ATOM     25  C   UNL     1       4.279 -13.123 -45.048  1.00  0.00     0.052 A 
ATOM     26  C   UNL     1       6.306 -11.854 -45.253  1.00  0.00     0.167 A 
ATOM     27  C   UNL     1       3.539 -11.957 -45.288  1.00  0.00     0.030 A 
ATOM     28  C   UNL     1       5.576 -10.694 -45.498  1.00  0.00     0.069 A 
ATOM     29  C   UNL     1       4.179 -10.735 -45.510  1.00  0.00     0.044 A 
ATOM     30  F   UNL     1       7.645 -11.779 -45.248  1.00  0.00    -0.203 F 
BRANCH  29  31
ATOM     31  N   UNL     1       3.502  -9.524 -45.747  1.00  0.00    -0.325 N 
ATOM     32  C   UNL     1       2.755  -8.792 -44.848  1.00  0.00     0.240 C 
ATOM     33  O   UNL     1       2.553  -9.026 -43.666  1.00  0.00    -0.273 OA
ATOM     34  H   UNL     1       3.613  -9.113 -46.668  1.00  0.00     0.169 HD
BRANCH  32  35
ATOM     35  C   UNL     1       2.184  -7.541 -45.441  1.00  0.00     0.128 C 
ATOM     36  C   UNL     1       2.669  -7.110 -46.826  1.00  0.00     0.028 C 
ATOM     37  C   UNL     1       3.128  -6.351 -45.622  1.00  0.00     0.028 C 
BRANCH  35  38
ATOM     38  C   UNL     1       0.753  -7.262 -45.092  1.00  0.00     0.240 C 
ATOM     39  O   UNL     1       0.455  -6.150 -44.678  1.00  0.00    -0.274 OA
ATOM     40  N   UNL     1      -0.072  -8.351 -45.281  1.00  0.00    -0.325 N 
ATOM     41  H   UNL     1       0.380  -9.201 -45.601  1.00  0.00     0.169 HD
BRANCH  40  42
ATOM     42  C   UNL     1      -1.454  -8.436 -45.026  1.00  0.00     0.041 A 
ATOM     43  C   UNL     1      -1.998  -8.886 -43.819  1.00  0.00     0.029 A 
ATOM     44  C   UNL     1      -2.319  -8.041 -46.055  1.00  0.00     0.029 A 
ATOM     45  C   UNL     1      -3.384  -8.949 -43.648  1.00  0.00     0.041 A 
ATOM     46  C   UNL     1      -3.704  -8.102 -45.883  1.00  0.00     0.041 A 
ATOM     47  C   UNL     1      -4.224  -8.559 -44.680  1.00  0.00     0.123 A 
ATOM     48  F   UNL     1      -5.552  -8.628 -44.518  1.00  0.00    -0.207 F 
ENDBRANCH  40  42
ENDBRANCH  35  38
ENDBRANCH  32  35
ENDBRANCH  29  31
ENDBRANCH   1  24
TORSDOF 12
ENDMDL
MODEL 14
REMARK minimizedAffinity -8.6686945
REMARK minimizedRMSD -1
REMARK SMILES COc1cc2c(Oc3ccc(NC(=O)C4(C(=O)Nc5ccc(F)cc5)CC4)cc3F)ccnc2cc1OCCCN1CCOCC1
REMARK SMILES IDX 7 1 6 2 3 3 4 4 36 5 5 6 35 7 34 8 31 9 33 10 32 11 2 12
REMARK SMILES IDX 1 13 37 14 38 15 39 16 40 17 41 18 42 19 46 20 43 21 45 22
REMARK SMILES IDX 44 23 8 24 9 25 29 26 10 27 28 28 11 29 30 30 12 31 13 32
REMARK SMILES IDX 14 33 15 35 26 36 27 37 16 38 17 39 18 40 19 42 20 43 25 44
REMARK SMILES IDX 21 45 24 46 22 47 23 48
REMARK H PARENT 12 34 18 41
ROOT
ATOM      1  O   UNL     1       8.486 -14.427 -45.865  1.00  0.00    -0.454 OA
ENDROOT
BRANCH   1   2
ATOM      2  C   UNL     1       9.278 -14.467 -44.737  1.00  0.00     0.138 A 
ATOM      3  C   UNL     1       9.251 -18.090 -43.740  1.00  0.00     0.161 A 
ATOM      4  C   UNL     1       8.971 -16.923 -44.452  1.00  0.00     0.064 A 
ATOM      5  C   UNL     1      10.090 -18.022 -42.615  1.00  0.00     0.163 A 
ATOM      6  C   UNL     1       9.515 -15.680 -44.057  1.00  0.00     0.047 A 
ATOM      7  C   UNL     1      10.625 -16.788 -42.233  1.00  0.00     0.079 A 
ATOM      8  C   UNL     1      10.361 -15.619 -42.936  1.00  0.00     0.078 A 
ATOM      9  C   UNL     1       9.915 -13.293 -44.352  1.00  0.00     0.068 A 
ATOM     10  N   UNL     1      10.939 -14.475 -42.526  1.00  0.00    -0.256 NA
ATOM     11  C   UNL     1      10.722 -13.349 -43.239  1.00  0.00     0.115 A 
BRANCH   3  12
ATOM     12  O   UNL     1       8.763 -19.332 -44.060  1.00  0.00    -0.493 OA
ATOM     13  C   UNL     1       8.563 -19.630 -45.434  1.00  0.00     0.278 C 
ENDBRANCH   3  12
BRANCH   5  14
ATOM     14  O   UNL     1      10.323 -19.211 -41.976  1.00  0.00    -0.490 OA
BRANCH  14  15
ATOM     15  C   UNL     1       9.756 -19.457 -40.692  1.00  0.00     0.231 C 
BRANCH  15  16
ATOM     16  C   UNL     1       8.336 -20.020 -40.791  1.00  0.00     0.057 C 
BRANCH  16  17
ATOM     17  C   UNL     1       7.307 -19.069 -40.161  1.00  0.00     0.088 C 
BRANCH  17  18
ATOM     18  N   UNL     1       5.891 -19.389 -40.375  1.00  0.00    -0.299 NA
ATOM     19  C   UNL     1       4.972 -18.292 -40.021  1.00  0.00     0.113 C 
ATOM     20  C   UNL     1       5.589 -19.863 -41.737  1.00  0.00     0.113 C 
ATOM     21  C   UNL     1       3.510 -18.740 -40.174  1.00  0.00     0.175 C 
ATOM     22  C   UNL     1       4.112 -20.274 -41.853  1.00  0.00     0.175 C 
ATOM     23  O   UNL     1       3.241 -19.186 -41.512  1.00  0.00    -0.379 OA
ENDBRANCH  17  18
ENDBRANCH  16  17
ENDBRANCH  15  16
ENDBRANCH  14  15
ENDBRANCH   5  14
ENDBRANCH   1   2
BRANCH   1  24
ATOM     24  C   UNL     1       7.133 -14.250 -45.674  1.00  0.00     0.163 A 
ATOM     25  C   UNL     1       6.566 -13.140 -45.049  1.00  0.00     0.052 A 
ATOM     26  C   UNL     1       6.293 -15.225 -46.208  1.00  0.00     0.167 A 
ATOM     27  C   UNL     1       5.172 -13.022 -44.959  1.00  0.00     0.030 A 
ATOM     28  C   UNL     1       4.907 -15.115 -46.114  1.00  0.00     0.069 A 
ATOM     29  C   UNL     1       4.334 -14.003 -45.493  1.00  0.00     0.044 A 
ATOM     30  F   UNL     1       6.811 -16.305 -46.811  1.00  0.00    -0.203 F 
BRANCH  29  31
ATOM     31  N   UNL     1       2.928 -13.946 -45.448  1.00  0.00    -0.325 N 
ATOM     32  C   UNL     1       2.088 -14.639 -44.601  1.00  0.00     0.240 C 
ATOM     33  O   UNL     1       2.388 -15.414 -43.706  1.00  0.00    -0.273 OA
ATOM     34  H   UNL     1       2.479 -13.285 -46.075  1.00  0.00     0.169 HD
BRANCH  32  35
ATOM     35  C   UNL     1       0.640 -14.325 -44.824  1.00  0.00     0.128 C 
ATOM     36  C   UNL     1       0.285 -13.208 -45.807  1.00  0.00     0.028 C 
ATOM     37  C   UNL     1       0.130 -12.966 -44.340  1.00  0.00     0.028 C 
BRANCH  35  38
ATOM     38  C   UNL     1      -0.289 -15.498 -44.747  1.00  0.00     0.240 C 
ATOM     39  O   UNL     1      -0.833 -15.886 -45.772  1.00  0.00    -0.274 OA
ATOM     40  N   UNL     1      -0.424 -15.998 -43.469  1.00  0.00    -0.325 N 
ATOM     41  H   UNL     1       0.089 -15.508 -42.743  1.00  0.00     0.169 HD
BRANCH  40  42
ATOM     42  C   UNL     1      -1.233 -17.070 -43.046  1.00  0.00     0.041 A 
ATOM     43  C   UNL     1      -2.619 -17.118 -43.226  1.00  0.00     0.029 A 
ATOM     44  C   UNL     1      -0.593 -18.143 -42.413  1.00  0.00     0.029 A 
ATOM     45  C   UNL     1      -3.354 -18.216 -42.769  1.00  0.00     0.041 A 
ATOM     46  C   UNL     1      -1.327 -19.241 -41.958  1.00  0.00     0.041 A 
ATOM     47  C   UNL     1      -2.703 -19.267 -42.139  1.00  0.00     0.123 A 
ATOM     48  F   UNL     1      -3.409 -20.314 -41.694  1.00  0.00    -0.207 F 
ENDBRANCH  40  42
ENDBRANCH  35  38
ENDBRANCH  32  35
ENDBRANCH  29  31
ENDBRANCH   1  24
TORSDOF 12
ENDMDL
MODEL 15
REMARK minimizedAffinity -8.6587038
REMARK minimizedRMSD -1
REMARK SMILES COc1cc2c(Oc3ccc(NC(=O)C4(C(=O)Nc5ccc(F)cc5)CC4)cc3F)ccnc2cc1OCCCN1CCOCC1
REMARK SMILES IDX 7 1 6 2 3 3 4 4 36 5 5 6 35 7 34 8 31 9 33 10 32 11 2 12
REMARK SMILES IDX 1 13 37 14 38 15 39 16 40 17 41 18 42 19 46 20 43 21 45 22
REMARK SMILES IDX 44 23 8 24 9 25 29 26 10 27 28 28 11 29 30 30 12 31 13 32
REMARK SMILES IDX 14 33 15 35 26 36 27 37 16 38 17 39 18 40 19 42 20 43 25 44
REMARK SMILES IDX 21 45 24 46 22 47 23 48
REMARK H PARENT 12 34 18 41
ROOT
ATOM      1  O   UNL     1       8.306 -12.291 -44.316  1.00  0.00    -0.454 OA
ENDROOT
BRANCH   1   2
ATOM      2  C   UNL     1       8.670 -12.750 -43.068  1.00  0.00     0.138 A 
ATOM      3  C   UNL     1      11.909 -14.555 -43.676  1.00  0.00     0.161 A 
ATOM      4  C   UNL     1      10.746 -13.827 -43.928  1.00  0.00     0.064 A 
ATOM      5  C   UNL     1      12.196 -14.956 -42.361  1.00  0.00     0.163 A 
ATOM      6  C   UNL     1       9.856 -13.489 -42.883  1.00  0.00     0.047 A 
ATOM      7  C   UNL     1      11.311 -14.617 -41.333  1.00  0.00     0.079 A 
ATOM      8  C   UNL     1      10.153 -13.885 -41.567  1.00  0.00     0.078 A 
ATOM      9  C   UNL     1       7.883 -12.374 -41.986  1.00  0.00     0.068 A 
ATOM     10  N   UNL     1       9.368 -13.569 -40.521  1.00  0.00    -0.256 NA
ATOM     11  C   UNL     1       8.268 -12.817 -40.742  1.00  0.00     0.115 A 
BRANCH   3  12
ATOM     12  O   UNL     1      12.821 -14.919 -44.635  1.00  0.00    -0.493 OA
ATOM     13  C   UNL     1      12.336 -15.594 -45.787  1.00  0.00     0.278 C 
ENDBRANCH   3  12
BRANCH   5  14
ATOM     14  O   UNL     1      13.360 -15.659 -42.196  1.00  0.00    -0.490 OA
BRANCH  14  15
ATOM     15  C   UNL     1      13.359 -17.079 -42.301  1.00  0.00     0.231 C 
BRANCH  15  16
ATOM     16  C   UNL     1      12.820 -17.748 -41.034  1.00  0.00     0.057 C 
BRANCH  16  17
ATOM     17  C   UNL     1      11.641 -18.683 -41.346  1.00  0.00     0.088 C 
BRANCH  17  18
ATOM     18  N   UNL     1      11.602 -19.963 -40.629  1.00  0.00    -0.299 NA
ATOM     19  C   UNL     1      12.164 -19.900 -39.268  1.00  0.00     0.113 C 
ATOM     20  C   UNL     1      10.263 -20.575 -40.581  1.00  0.00     0.113 C 
ATOM     21  C   UNL     1      12.181 -21.297 -38.626  1.00  0.00     0.175 C 
ATOM     22  C   UNL     1      10.322 -21.955 -39.908  1.00  0.00     0.175 C 
ATOM     23  O   UNL     1      10.864 -21.865 -38.582  1.00  0.00    -0.379 OA
ENDBRANCH  17  18
ENDBRANCH  16  17
ENDBRANCH  15  16
ENDBRANCH  14  15
ENDBRANCH   5  14
ENDBRANCH   1   2
BRANCH   1  24
ATOM     24  C   UNL     1       7.094 -12.720 -44.812  1.00  0.00     0.163 A 
ATOM     25  C   UNL     1       6.806 -14.041 -45.152  1.00  0.00     0.052 A 
ATOM     26  C   UNL     1       6.084 -11.764 -44.909  1.00  0.00     0.167 A 
ATOM     27  C   UNL     1       5.520 -14.388 -45.590  1.00  0.00     0.030 A 
ATOM     28  C   UNL     1       4.808 -12.103 -45.351  1.00  0.00     0.069 A 
ATOM     29  C   UNL     1       4.513 -13.426 -45.689  1.00  0.00     0.044 A 
ATOM     30  F   UNL     1       6.334 -10.485 -44.592  1.00  0.00    -0.203 F 
BRANCH  29  31
ATOM     31  N   UNL     1       3.199 -13.704 -46.111  1.00  0.00    -0.325 N 
ATOM     32  C   UNL     1       2.243 -14.443 -45.445  1.00  0.00     0.240 C 
ATOM     33  O   UNL     1       2.330 -14.979 -44.351  1.00  0.00    -0.273 OA
ATOM     34  H   UNL     1       2.899 -13.273 -46.980  1.00  0.00     0.169 HD
BRANCH  32  35
ATOM     35  C   UNL     1       0.943 -14.525 -46.186  1.00  0.00     0.128 C 
ATOM     36  C   UNL     1      -0.077 -15.573 -45.741  1.00  0.00     0.028 C 
ATOM     37  C   UNL     1       0.681 -15.785 -47.012  1.00  0.00     0.028 C 
BRANCH  35  38
ATOM     38  C   UNL     1       0.415 -13.219 -46.698  1.00  0.00     0.240 C 
ATOM     39  O   UNL     1       0.637 -12.911 -47.861  1.00  0.00    -0.274 OA
ATOM     40  N   UNL     1      -0.272 -12.501 -45.741  1.00  0.00    -0.325 N 
ATOM     41  H   UNL     1      -0.316 -12.919 -44.817  1.00  0.00     0.169 HD
BRANCH  40  42
ATOM     42  C   UNL     1      -0.868 -11.233 -45.882  1.00  0.00     0.041 A 
ATOM     43  C   UNL     1      -2.037 -10.999 -46.614  1.00  0.00     0.029 A 
ATOM     44  C   UNL     1      -0.240 -10.157 -45.242  1.00  0.00     0.029 A 
ATOM     45  C   UNL     1      -2.561  -9.707 -46.713  1.00  0.00     0.041 A 
ATOM     46  C   UNL     1      -0.766  -8.866 -45.339  1.00  0.00     0.041 A 
ATOM     47  C   UNL     1      -1.922  -8.652 -46.077  1.00  0.00     0.123 A 
ATOM     48  F   UNL     1      -2.421  -7.414 -46.180  1.00  0.00    -0.207 F 
ENDBRANCH  40  42
ENDBRANCH  35  38
ENDBRANCH  32  35
ENDBRANCH  29  31
ENDBRANCH   1  24
TORSDOF 12
ENDMDL
MODEL 16
REMARK minimizedAffinity -8.64523888
REMARK minimizedRMSD -1
REMARK SMILES COc1cc2c(Oc3ccc(NC(=O)C4(C(=O)Nc5ccc(F)cc5)CC4)cc3F)ccnc2cc1OCCCN1CCOCC1
REMARK SMILES IDX 7 1 6 2 3 3 4 4 36 5 5 6 35 7 34 8 31 9 33 10 32 11 2 12
REMARK SMILES IDX 1 13 37 14 38 15 39 16 40 17 41 18 42 19 46 20 43 21 45 22
REMARK SMILES IDX 44 23 8 24 9 25 29 26 10 27 28 28 11 29 30 30 12 31 13 32
REMARK SMILES IDX 14 33 15 35 26 36 27 37 16 38 17 39 18 40 19 42 20 43 25 44
REMARK SMILES IDX 21 45 24 46 22 47 23 48
REMARK H PARENT 12 34 18 41
ROOT
ATOM      1  O   UNL     1       1.084 -19.487 -40.298  1.00  0.00    -0.454 OA
ENDROOT
BRANCH   1   2
ATOM      2  C   UNL     1       0.001 -19.404 -41.146  1.00  0.00     0.138 A 
ATOM      3  C   UNL     1       0.586 -16.221 -43.054  1.00  0.00     0.161 A 
ATOM      4  C   UNL     1       0.780 -17.257 -42.140  1.00  0.00     0.064 A 
ATOM      5  C   UNL     1      -0.544 -16.245 -43.888  1.00  0.00     0.163 A 
ATOM      6  C   UNL     1      -0.141 -18.325 -42.042  1.00  0.00     0.047 A 
ATOM      7  C   UNL     1      -1.449 -17.306 -43.785  1.00  0.00     0.079 A 
ATOM      8  C   UNL     1      -1.265 -18.349 -42.886  1.00  0.00     0.078 A 
ATOM      9  C   UNL     1      -0.893 -20.469 -41.160  1.00  0.00     0.068 A 
ATOM     10  N   UNL     1      -2.163 -19.351 -42.867  1.00  0.00    -0.256 NA
ATOM     11  C   UNL     1      -1.958 -20.388 -42.027  1.00  0.00     0.115 A 
BRANCH   3  12
ATOM     12  O   UNL     1       1.434 -15.153 -43.210  1.00  0.00    -0.493 OA
ATOM     13  C   UNL     1       2.732 -15.409 -43.727  1.00  0.00     0.278 C 
ENDBRANCH   3  12
BRANCH   5  14
ATOM     14  O   UNL     1      -0.658 -15.197 -44.764  1.00  0.00    -0.490 OA
BRANCH  14  15
ATOM     15  C   UNL     1      -0.303 -15.366 -46.132  1.00  0.00     0.231 C 
BRANCH  15  16
ATOM     16  C   UNL     1       0.730 -14.333 -46.589  1.00  0.00     0.057 C 
BRANCH  16  17
ATOM     17  C   UNL     1       0.086 -12.960 -46.834  1.00  0.00     0.088 C 
BRANCH  17  18
ATOM     18  N   UNL     1       0.540 -11.854 -45.983  1.00  0.00    -0.299 NA
ATOM     19  C   UNL     1      -0.070 -11.844 -44.642  1.00  0.00     0.113 C 
ATOM     20  C   UNL     1       2.006 -11.765 -45.857  1.00  0.00     0.113 C 
ATOM     21  C   UNL     1       0.376 -10.603 -43.853  1.00  0.00     0.175 C 
ATOM     22  C   UNL     1       2.406 -10.527 -45.040  1.00  0.00     0.175 C 
ATOM     23  O   UNL     1       1.806 -10.547 -43.737  1.00  0.00    -0.379 OA
ENDBRANCH  17  18
ENDBRANCH  16  17
ENDBRANCH  15  16
ENDBRANCH  14  15
ENDBRANCH   5  14
ENDBRANCH   1   2
BRANCH   1  24
ATOM     24  C   UNL     1       2.297 -19.815 -40.863  1.00  0.00     0.163 A 
ATOM     25  C   UNL     1       2.466 -20.769 -41.866  1.00  0.00     0.052 A 
ATOM     26  C   UNL     1       3.405 -19.085 -40.435  1.00  0.00     0.167 A 
ATOM     27  C   UNL     1       3.735 -20.986 -42.422  1.00  0.00     0.030 A 
ATOM     28  C   UNL     1       4.669 -19.303 -40.979  1.00  0.00     0.069 A 
ATOM     29  C   UNL     1       4.842 -20.254 -41.987  1.00  0.00     0.044 A 
ATOM     30  F   UNL     1       3.272 -18.164 -39.469  1.00  0.00    -0.203 F 
BRANCH  29  31
ATOM     31  N   UNL     1       6.141 -20.412 -42.505  1.00  0.00    -0.325 N 
ATOM     32  C   UNL     1       6.669 -19.828 -43.637  1.00  0.00     0.240 C 
ATOM     33  O   UNL     1       6.132 -19.039 -44.401  1.00  0.00    -0.273 OA
ATOM     34  H   UNL     1       6.783 -20.980 -41.960  1.00  0.00     0.169 HD
BRANCH  32  35
ATOM     35  C   UNL     1       8.096 -20.210 -43.885  1.00  0.00     0.128 C 
ATOM     36  C   UNL     1       8.475 -21.689 -43.793  1.00  0.00     0.028 C 
ATOM     37  C   UNL     1       8.895 -20.758 -42.702  1.00  0.00     0.028 C 
BRANCH  35  38
ATOM     38  C   UNL     1       8.816 -19.374 -44.899  1.00  0.00     0.240 C 
ATOM     39  O   UNL     1       8.995 -19.833 -46.019  1.00  0.00    -0.274 OA
ATOM     40  N   UNL     1       9.212 -18.148 -44.407  1.00  0.00    -0.325 N 
ATOM     41  H   UNL     1       8.997 -17.970 -43.431  1.00  0.00     0.169 HD
BRANCH  40  42
ATOM     42  C   UNL     1       9.927 -17.141 -45.082  1.00  0.00     0.041 A 
ATOM     43  C   UNL     1       9.342 -15.977 -45.591  1.00  0.00     0.029 A 
ATOM     44  C   UNL     1      11.305 -17.334 -45.242  1.00  0.00     0.029 A 
ATOM     45  C   UNL     1      10.122 -15.027 -46.258  1.00  0.00     0.041 A 
ATOM     46  C   UNL     1      12.085 -16.384 -45.907  1.00  0.00     0.041 A 
ATOM     47  C   UNL     1      11.484 -15.239 -46.412  1.00  0.00     0.123 A 
ATOM     48  F   UNL     1      12.228 -14.333 -47.059  1.00  0.00    -0.207 F 
ENDBRANCH  40  42
ENDBRANCH  35  38
ENDBRANCH  32  35
ENDBRANCH  29  31
ENDBRANCH   1  24
TORSDOF 12
ENDMDL
MODEL 17
REMARK minimizedAffinity -8.63851261
REMARK minimizedRMSD -1
REMARK SMILES COc1cc2c(Oc3ccc(NC(=O)C4(C(=O)Nc5ccc(F)cc5)CC4)cc3F)ccnc2cc1OCCCN1CCOCC1
REMARK SMILES IDX 7 1 6 2 3 3 4 4 36 5 5 6 35 7 34 8 31 9 33 10 32 11 2 12
REMARK SMILES IDX 1 13 37 14 38 15 39 16 40 17 41 18 42 19 46 20 43 21 45 22
REMARK SMILES IDX 44 23 8 24 9 25 29 26 10 27 28 28 11 29 30 30 12 31 13 32
REMARK SMILES IDX 14 33 15 35 26 36 27 37 16 38 17 39 18 40 19 42 20 43 25 44
REMARK SMILES IDX 21 45 24 46 22 47 23 48
REMARK H PARENT 12 34 18 41
ROOT
ATOM      1  O   UNL     1       6.390 -11.724 -45.873  1.00  0.00    -0.454 OA
ENDROOT
BRANCH   1   2
ATOM      2  C   UNL     1       6.391 -10.492 -45.256  1.00  0.00     0.138 A 
ATOM      3  C   UNL     1       2.769  -9.491 -45.225  1.00  0.00     0.161 A 
ATOM      4  C   UNL     1       3.921 -10.243 -45.462  1.00  0.00     0.064 A 
ATOM      5  C   UNL     1       2.881  -8.255 -44.567  1.00  0.00     0.163 A 
ATOM      6  C   UNL     1       5.192  -9.779 -45.054  1.00  0.00     0.047 A 
ATOM      7  C   UNL     1       4.142  -7.804 -44.165  1.00  0.00     0.079 A 
ATOM      8  C   UNL     1       5.297  -8.545 -44.387  1.00  0.00     0.078 A 
ATOM      9  C   UNL     1       7.598 -10.023 -44.751  1.00  0.00     0.068 A 
ATOM     10  N   UNL     1       6.470  -8.060 -43.942  1.00  0.00    -0.256 NA
ATOM     11  C   UNL     1       7.585  -8.802 -44.115  1.00  0.00     0.115 A 
BRANCH   3  12
ATOM     12  O   UNL     1       1.503  -9.874 -45.589  1.00  0.00    -0.493 OA
ATOM     13  C   UNL     1       1.017 -11.112 -45.092  1.00  0.00     0.278 C 
ENDBRANCH   3  12
BRANCH   5  14
ATOM     14  O   UNL     1       1.705  -7.582 -44.364  1.00  0.00    -0.490 OA
BRANCH  14  15
ATOM     15  C   UNL     1       1.391  -6.437 -45.150  1.00  0.00     0.231 C 
BRANCH  15  16
ATOM     16  C   UNL     1       0.176  -5.682 -44.603  1.00  0.00     0.057 C 
BRANCH  16  17
ATOM     17  C   UNL     1      -1.139  -6.256 -45.152  1.00  0.00     0.088 C 
BRANCH  17  18
ATOM     18  N   UNL     1      -1.892  -7.152 -44.268  1.00  0.00    -0.299 NA
ATOM     19  C   UNL     1      -3.336  -6.863 -44.216  1.00  0.00     0.113 C 
ATOM     20  C   UNL     1      -1.687  -8.582 -44.559  1.00  0.00     0.113 C 
ATOM     21  C   UNL     1      -4.034  -7.774 -43.194  1.00  0.00     0.175 C 
ATOM     22  C   UNL     1      -2.424  -9.456 -43.531  1.00  0.00     0.175 C 
ATOM     23  O   UNL     1      -3.828  -9.160 -43.507  1.00  0.00    -0.379 OA
ENDBRANCH  17  18
ENDBRANCH  16  17
ENDBRANCH  15  16
ENDBRANCH  14  15
ENDBRANCH   5  14
ENDBRANCH   1   2
BRANCH   1  24
ATOM     24  C   UNL     1       6.187 -12.826 -45.070  1.00  0.00     0.163 A 
ATOM     25  C   UNL     1       4.945 -13.220 -44.574  1.00  0.00     0.052 A 
ATOM     26  C   UNL     1       7.301 -13.620 -44.804  1.00  0.00     0.167 A 
ATOM     27  C   UNL     1       4.832 -14.393 -43.816  1.00  0.00     0.030 A 
ATOM     28  C   UNL     1       7.195 -14.783 -44.045  1.00  0.00     0.069 A 
ATOM     29  C   UNL     1       5.952 -15.185 -43.549  1.00  0.00     0.044 A 
ATOM     30  F   UNL     1       8.509 -13.264 -45.265  1.00  0.00    -0.203 F 
BRANCH  29  31
ATOM     31  N   UNL     1       5.912 -16.378 -42.805  1.00  0.00    -0.325 N 
ATOM     32  C   UNL     1       6.370 -16.580 -41.519  1.00  0.00     0.240 C 
ATOM     33  O   UNL     1       6.872 -15.766 -40.759  1.00  0.00    -0.273 OA
ATOM     34  H   UNL     1       5.451 -17.172 -43.240  1.00  0.00     0.169 HD
BRANCH  32  35
ATOM     35  C   UNL     1       6.154 -17.981 -41.032  1.00  0.00     0.128 C 
ATOM     36  C   UNL     1       6.524 -18.308 -39.585  1.00  0.00     0.028 C 
ATOM     37  C   UNL     1       7.396 -18.808 -40.692  1.00  0.00     0.028 C 
BRANCH  35  38
ATOM     38  C   UNL     1       4.972 -18.688 -41.620  1.00  0.00     0.240 C 
ATOM     39  O   UNL     1       5.080 -19.194 -42.729  1.00  0.00    -0.274 OA
ATOM     40  N   UNL     1       3.862 -18.662 -40.800  1.00  0.00    -0.325 N 
ATOM     41  H   UNL     1       3.967 -18.156 -39.927  1.00  0.00     0.169 HD
BRANCH  40  42
ATOM     42  C   UNL     1       2.590 -19.204 -41.059  1.00  0.00     0.041 A 
ATOM     43  C   UNL     1       2.310 -20.575 -41.051  1.00  0.00     0.029 A 
ATOM     44  C   UNL     1       1.555 -18.302 -41.337  1.00  0.00     0.029 A 
ATOM     45  C   UNL     1       1.019 -21.035 -41.327  1.00  0.00     0.041 A 
ATOM     46  C   UNL     1       0.264 -18.762 -41.610  1.00  0.00     0.041 A 
ATOM     47  C   UNL     1       0.008 -20.126 -41.605  1.00  0.00     0.123 A 
ATOM     48  F   UNL     1      -1.226 -20.568 -41.878  1.00  0.00    -0.207 F 
ENDBRANCH  40  42
ENDBRANCH  35  38
ENDBRANCH  32  35
ENDBRANCH  29  31
ENDBRANCH   1  24
TORSDOF 12
ENDMDL
MODEL 18
REMARK minimizedAffinity -8.62743378
REMARK minimizedRMSD -1
REMARK SMILES COc1cc2c(Oc3ccc(NC(=O)C4(C(=O)Nc5ccc(F)cc5)CC4)cc3F)ccnc2cc1OCCCN1CCOCC1
REMARK SMILES IDX 7 1 6 2 3 3 4 4 36 5 5 6 35 7 34 8 31 9 33 10 32 11 2 12
REMARK SMILES IDX 1 13 37 14 38 15 39 16 40 17 41 18 42 19 46 20 43 21 45 22
REMARK SMILES IDX 44 23 8 24 9 25 29 26 10 27 28 28 11 29 30 30 12 31 13 32
REMARK SMILES IDX 14 33 15 35 26 36 27 37 16 38 17 39 18 40 19 42 20 43 25 44
REMARK SMILES IDX 21 45 24 46 22 47 23 48
REMARK H PARENT 12 34 18 41
ROOT
ATOM      1  O   UNL     1       8.818 -17.594 -43.349  1.00  0.00    -0.454 OA
ENDROOT
BRANCH   1   2
ATOM      2  C   UNL     1       9.341 -16.337 -43.137  1.00  0.00     0.138 A 
ATOM      3  C   UNL     1       7.229 -14.100 -45.296  1.00  0.00     0.161 A 
ATOM      4  C   UNL     1       7.721 -15.259 -44.692  1.00  0.00     0.064 A 
ATOM      5  C   UNL     1       7.824 -12.864 -44.992  1.00  0.00     0.163 A 
ATOM      6  C   UNL     1       8.803 -15.206 -43.785  1.00  0.00     0.047 A 
ATOM      7  C   UNL     1       8.893 -12.821 -44.092  1.00  0.00     0.079 A 
ATOM      8  C   UNL     1       9.388 -13.965 -43.478  1.00  0.00     0.078 A 
ATOM      9  C   UNL     1      10.348 -16.206 -42.187  1.00  0.00     0.068 A 
ATOM     10  N   UNL     1      10.399 -13.839 -42.598  1.00  0.00    -0.256 NA
ATOM     11  C   UNL     1      10.847 -14.944 -41.965  1.00  0.00     0.115 A 
BRANCH   3  12
ATOM     12  O   UNL     1       6.183 -14.070 -46.183  1.00  0.00    -0.493 OA
ATOM     13  C   UNL     1       4.898 -14.439 -45.704  1.00  0.00     0.278 C 
ENDBRANCH   3  12
BRANCH   5  14
ATOM     14  O   UNL     1       7.279 -11.774 -45.618  1.00  0.00    -0.490 OA
BRANCH  14  15
ATOM     15  C   UNL     1       7.570 -10.461 -45.151  1.00  0.00     0.231 C 
BRANCH  15  16
ATOM     16  C   UNL     1       6.524  -9.962 -44.151  1.00  0.00     0.057 C 
BRANCH  16  17
ATOM     17  C   UNL     1       5.576  -8.935 -44.790  1.00  0.00     0.088 C 
BRANCH  17  18
ATOM     18  N   UNL     1       4.725  -8.162 -43.879  1.00  0.00    -0.299 NA
ATOM     19  C   UNL     1       5.409  -7.733 -42.646  1.00  0.00     0.113 C 
ATOM     20  C   UNL     1       4.080  -6.999 -44.513  1.00  0.00     0.113 C 
ATOM     21  C   UNL     1       4.427  -7.021 -41.702  1.00  0.00     0.175 C 
ATOM     22  C   UNL     1       3.129  -6.302 -43.527  1.00  0.00     0.175 C 
ATOM     23  O   UNL     1       3.821  -5.887 -42.341  1.00  0.00    -0.379 OA
ENDBRANCH  17  18
ENDBRANCH  16  17
ENDBRANCH  15  16
ENDBRANCH  14  15
ENDBRANCH   5  14
ENDBRANCH   1   2
BRANCH   1  24
ATOM     24  C   UNL     1       7.638 -17.897 -42.704  1.00  0.00     0.163 A 
ATOM     25  C   UNL     1       7.426 -17.738 -41.336  1.00  0.00     0.052 A 
ATOM     26  C   UNL     1       6.581 -18.328 -43.504  1.00  0.00     0.167 A 
ATOM     27  C   UNL     1       6.168 -18.017 -40.784  1.00  0.00     0.030 A 
ATOM     28  C   UNL     1       5.332 -18.613 -42.960  1.00  0.00     0.069 A 
ATOM     29  C   UNL     1       5.112 -18.451 -41.589  1.00  0.00     0.044 A 
ATOM     30  F   UNL     1       6.758 -18.493 -44.824  1.00  0.00    -0.203 F 
BRANCH  29  31
ATOM     31  N   UNL     1       3.822 -18.740 -41.106  1.00  0.00    -0.325 N 
ATOM     32  C   UNL     1       3.054 -19.852 -41.381  1.00  0.00     0.240 C 
ATOM     33  O   UNL     1       3.343 -20.819 -42.070  1.00  0.00    -0.273 OA
ATOM     34  H   UNL     1       3.427 -18.082 -40.441  1.00  0.00     0.169 HD
BRANCH  32  35
ATOM     35  C   UNL     1       1.728 -19.837 -40.683  1.00  0.00     0.128 C 
ATOM     36  C   UNL     1       1.628 -19.121 -39.335  1.00  0.00     0.028 C 
ATOM     37  C   UNL     1       1.613 -20.616 -39.372  1.00  0.00     0.028 C 
BRANCH  35  38
ATOM     38  C   UNL     1       0.531 -19.785 -41.583  1.00  0.00     0.240 C 
ATOM     39  O   UNL     1       0.316 -20.730 -42.330  1.00  0.00    -0.274 OA
ATOM     40  N   UNL     1      -0.194 -18.619 -41.453  1.00  0.00    -0.325 N 
ATOM     41  H   UNL     1       0.174 -17.937 -40.797  1.00  0.00     0.169 HD
BRANCH  40  42
ATOM     42  C   UNL     1      -1.349 -18.241 -42.163  1.00  0.00     0.041 A 
ATOM     43  C   UNL     1      -1.380 -17.212 -43.110  1.00  0.00     0.029 A 
ATOM     44  C   UNL     1      -2.526 -18.952 -41.894  1.00  0.00     0.029 A 
ATOM     45  C   UNL     1      -2.572 -16.892 -43.767  1.00  0.00     0.041 A 
ATOM     46  C   UNL     1      -3.716 -18.634 -42.553  1.00  0.00     0.041 A 
ATOM     47  C   UNL     1      -3.729 -17.603 -43.483  1.00  0.00     0.123 A 
ATOM     48  F   UNL     1      -4.871 -17.290 -44.107  1.00  0.00    -0.207 F 
ENDBRANCH  40  42
ENDBRANCH  35  38
ENDBRANCH  32  35
ENDBRANCH  29  31
ENDBRANCH   1  24
TORSDOF 12
ENDMDL
MODEL 19
REMARK minimizedAffinity -8.60208511
REMARK minimizedRMSD -1
REMARK SMILES COc1cc2c(Oc3ccc(NC(=O)C4(C(=O)Nc5ccc(F)cc5)CC4)cc3F)ccnc2cc1OCCCN1CCOCC1
REMARK SMILES IDX 7 1 6 2 3 3 4 4 36 5 5 6 35 7 34 8 31 9 33 10 32 11 2 12
REMARK SMILES IDX 1 13 37 14 38 15 39 16 40 17 41 18 42 19 46 20 43 21 45 22
REMARK SMILES IDX 44 23 8 24 9 25 29 26 10 27 28 28 11 29 30 30 12 31 13 32
REMARK SMILES IDX 14 33 15 35 26 36 27 37 16 38 17 39 18 40 19 42 20 43 25 44
REMARK SMILES IDX 21 45 24 46 22 47 23 48
REMARK H PARENT 12 34 18 41
ROOT
ATOM      1  O   UNL     1       8.421 -12.443 -44.501  1.00  0.00    -0.454 OA
ENDROOT
BRANCH   1   2
ATOM      2  C   UNL     1       8.879 -12.873 -43.274  1.00  0.00     0.138 A 
ATOM      3  C   UNL     1      12.064 -14.696 -44.083  1.00  0.00     0.161 A 
ATOM      4  C   UNL     1      10.884 -13.972 -44.263  1.00  0.00     0.064 A 
ATOM      5  C   UNL     1      12.450 -15.066 -42.784  1.00  0.00     0.163 A 
ATOM      6  C   UNL     1      10.077 -13.609 -43.161  1.00  0.00     0.047 A 
ATOM      7  C   UNL     1      11.646 -14.701 -41.700  1.00  0.00     0.079 A 
ATOM      8  C   UNL     1      10.473 -13.973 -41.863  1.00  0.00     0.078 A 
ATOM      9  C   UNL     1       8.177 -12.470 -42.144  1.00  0.00     0.068 A 
ATOM     10  N   UNL     1       9.769 -13.632 -40.768  1.00  0.00    -0.256 NA
ATOM     11  C   UNL     1       8.655 -12.884 -40.922  1.00  0.00     0.115 A 
BRANCH   3  12
ATOM     12  O   UNL     1      12.900 -15.084 -45.100  1.00  0.00    -0.493 OA
ATOM     13  C   UNL     1      12.569 -14.678 -46.420  1.00  0.00     0.278 C 
ENDBRANCH   3  12
BRANCH   5  14
ATOM     14  O   UNL     1      13.624 -15.766 -42.691  1.00  0.00    -0.490 OA
BRANCH  14  15
ATOM     15  C   UNL     1      13.636 -17.069 -42.115  1.00  0.00     0.231 C 
BRANCH  15  16
ATOM     16  C   UNL     1      13.254 -18.149 -43.130  1.00  0.00     0.057 C 
BRANCH  16  17
ATOM     17  C   UNL     1      13.080 -19.520 -42.459  1.00  0.00     0.088 C 
BRANCH  17  18
ATOM     18  N   UNL     1      12.140 -19.593 -41.335  1.00  0.00    -0.299 NA
ATOM     19  C   UNL     1      10.726 -19.665 -41.745  1.00  0.00     0.113 C 
ATOM     20  C   UNL     1      12.432 -20.682 -40.386  1.00  0.00     0.113 C 
ATOM     21  C   UNL     1       9.804 -19.635 -40.516  1.00  0.00     0.175 C 
ATOM     22  C   UNL     1      11.471 -20.631 -39.189  1.00  0.00     0.175 C 
ATOM     23  O   UNL     1      10.103 -20.711 -39.615  1.00  0.00    -0.379 OA
ENDBRANCH  17  18
ENDBRANCH  16  17
ENDBRANCH  15  16
ENDBRANCH  14  15
ENDBRANCH   5  14
ENDBRANCH   1   2
BRANCH   1  24
ATOM     24  C   UNL     1       7.167 -12.867 -44.884  1.00  0.00     0.163 A 
ATOM     25  C   UNL     1       6.832 -14.193 -45.149  1.00  0.00     0.052 A 
ATOM     26  C   UNL     1       6.169 -11.895 -44.940  1.00  0.00     0.167 A 
ATOM     27  C   UNL     1       5.511 -14.533 -45.472  1.00  0.00     0.030 A 
ATOM     28  C   UNL     1       4.856 -12.226 -45.268  1.00  0.00     0.069 A 
ATOM     29  C   UNL     1       4.514 -13.555 -45.530  1.00  0.00     0.044 A 
ATOM     30  F   UNL     1       6.464 -10.611 -44.694  1.00  0.00    -0.203 F 
BRANCH  29  31
ATOM     31  N   UNL     1       3.167 -13.823 -45.838  1.00  0.00    -0.325 N 
ATOM     32  C   UNL     1       2.184 -14.271 -44.981  1.00  0.00     0.240 C 
ATOM     33  O   UNL     1       2.272 -14.498 -43.783  1.00  0.00    -0.273 OA
ATOM     34  H   UNL     1       2.867 -13.618 -46.787  1.00  0.00     0.169 HD
BRANCH  32  35
ATOM     35  C   UNL     1       0.854 -14.438 -45.648  1.00  0.00     0.128 C 
ATOM     36  C   UNL     1       0.672 -13.863 -47.054  1.00  0.00     0.028 C 
ATOM     37  C   UNL     1       0.024 -13.176 -45.894  1.00  0.00     0.028 C 
BRANCH  35  38
ATOM     38  C   UNL     1       0.129 -15.709 -45.323  1.00  0.00     0.240 C 
ATOM     39  O   UNL     1      -0.072 -16.517 -46.219  1.00  0.00    -0.274 OA
ATOM     40  N   UNL     1      -0.245 -15.795 -43.998  1.00  0.00    -0.325 N 
ATOM     41  H   UNL     1      -0.013 -14.995 -43.418  1.00  0.00     0.169 HD
BRANCH  40  42
ATOM     42  C   UNL     1      -0.958 -16.835 -43.372  1.00  0.00     0.041 A 
ATOM     43  C   UNL     1      -0.364 -17.811 -42.566  1.00  0.00     0.029 A 
ATOM     44  C   UNL     1      -2.343 -16.876 -43.580  1.00  0.00     0.029 A 
ATOM     45  C   UNL     1      -1.142 -18.818 -41.986  1.00  0.00     0.041 A 
ATOM     46  C   UNL     1      -3.120 -17.880 -42.998  1.00  0.00     0.041 A 
ATOM     47  C   UNL     1      -2.511 -18.845 -42.208  1.00  0.00     0.123 A 
ATOM     48  F   UNL     1      -3.254 -19.815 -41.659  1.00  0.00    -0.207 F 
ENDBRANCH  40  42
ENDBRANCH  35  38
ENDBRANCH  32  35
ENDBRANCH  29  31
ENDBRANCH   1  24
TORSDOF 12
ENDMDL
MODEL 20
REMARK minimizedAffinity -8.48038101
REMARK minimizedRMSD -1
REMARK SMILES COc1cc2c(Oc3ccc(NC(=O)C4(C(=O)Nc5ccc(F)cc5)CC4)cc3F)ccnc2cc1OCCCN1CCOCC1
REMARK SMILES IDX 7 1 6 2 3 3 4 4 36 5 5 6 35 7 34 8 31 9 33 10 32 11 2 12
REMARK SMILES IDX 1 13 37 14 38 15 39 16 40 17 41 18 42 19 46 20 43 21 45 22
REMARK SMILES IDX 44 23 8 24 9 25 29 26 10 27 28 28 11 29 30 30 12 31 13 32
REMARK SMILES IDX 14 33 15 35 26 36 27 37 16 38 17 39 18 40 19 42 20 43 25 44
REMARK SMILES IDX 21 45 24 46 22 47 23 48
REMARK H PARENT 12 34 18 41
ROOT
ATOM      1  O   UNL     1       6.859 -12.826 -45.544  1.00  0.00    -0.454 OA
ENDROOT
BRANCH   1   2
ATOM      2  C   UNL     1       7.620 -13.243 -44.474  1.00  0.00     0.138 A 
ATOM      3  C   UNL     1       5.396 -15.681 -42.677  1.00  0.00     0.161 A 
ATOM      4  C   UNL     1       5.829 -14.751 -43.623  1.00  0.00     0.064 A 
ATOM      5  C   UNL     1       6.263 -16.054 -41.635  1.00  0.00     0.163 A 
ATOM      6  C   UNL     1       7.120 -14.181 -43.547  1.00  0.00     0.047 A 
ATOM      7  C   UNL     1       7.539 -15.485 -41.569  1.00  0.00     0.079 A 
ATOM      8  C   UNL     1       7.986 -14.564 -42.509  1.00  0.00     0.078 A 
ATOM      9  C   UNL     1       8.931 -12.787 -44.395  1.00  0.00     0.068 A 
ATOM     10  N   UNL     1       9.239 -14.086 -42.397  1.00  0.00    -0.256 NA
ATOM     11  C   UNL     1       9.690 -13.228 -43.337  1.00  0.00     0.115 A 
BRANCH   3  12
ATOM     12  O   UNL     1       4.161 -16.279 -42.683  1.00  0.00    -0.493 OA
ATOM     13  C   UNL     1       3.169 -15.738 -43.543  1.00  0.00     0.278 C 
ENDBRANCH   3  12
BRANCH   5  14
ATOM     14  O   UNL     1       5.767 -16.977 -40.753  1.00  0.00    -0.490 OA
BRANCH  14  15
ATOM     15  C   UNL     1       6.207 -18.331 -40.812  1.00  0.00     0.231 C 
BRANCH  15  16
ATOM     16  C   UNL     1       5.049 -19.300 -41.055  1.00  0.00     0.057 C 
BRANCH  16  17
ATOM     17  C   UNL     1       3.762 -18.830 -40.358  1.00  0.00     0.088 C 
BRANCH  17  18
ATOM     18  N   UNL     1       2.493 -19.161 -41.016  1.00  0.00    -0.299 NA
ATOM     19  C   UNL     1       1.847 -20.376 -40.487  1.00  0.00     0.113 C 
ATOM     20  C   UNL     1       1.523 -18.052 -41.025  1.00  0.00     0.113 C 
ATOM     21  C   UNL     1       0.582 -20.711 -41.293  1.00  0.00     0.175 C 
ATOM     22  C   UNL     1       0.264 -18.440 -41.817  1.00  0.00     0.175 C 
ATOM     23  O   UNL     1      -0.349 -19.619 -41.276  1.00  0.00    -0.379 OA
ENDBRANCH  17  18
ENDBRANCH  16  17
ENDBRANCH  15  16
ENDBRANCH  14  15
ENDBRANCH   5  14
ENDBRANCH   1   2
BRANCH   1  24
ATOM     24  C   UNL     1       6.070 -11.712 -45.355  1.00  0.00     0.163 A 
ATOM     25  C   UNL     1       6.562 -10.438 -45.074  1.00  0.00     0.052 A 
ATOM     26  C   UNL     1       4.697 -11.881 -45.527  1.00  0.00     0.167 A 
ATOM     27  C   UNL     1       5.679  -9.355 -44.961  1.00  0.00     0.030 A 
ATOM     28  C   UNL     1       3.816 -10.809 -45.408  1.00  0.00     0.069 A 
ATOM     29  C   UNL     1       4.304  -9.530 -45.131  1.00  0.00     0.044 A 
ATOM     30  F   UNL     1       4.196 -13.096 -45.795  1.00  0.00    -0.203 F 
BRANCH  29  31
ATOM     31  N   UNL     1       3.362  -8.488 -45.041  1.00  0.00    -0.325 N 
ATOM     32  C   UNL     1       2.949  -7.642 -46.049  1.00  0.00     0.240 C 
ATOM     33  O   UNL     1       3.290  -7.641 -47.222  1.00  0.00    -0.273 OA
ATOM     34  H   UNL     1       2.894  -8.373 -44.147  1.00  0.00     0.169 HD
BRANCH  32  35
ATOM     35  C   UNL     1       1.918  -6.652 -45.600  1.00  0.00     0.128 C 
ATOM     36  C   UNL     1       1.974  -5.237 -46.177  1.00  0.00     0.028 C 
ATOM     37  C   UNL     1       2.397  -5.466 -44.761  1.00  0.00     0.028 C 
BRANCH  35  38
ATOM     38  C   UNL     1       0.565  -7.225 -45.306  1.00  0.00     0.240 C 
ATOM     39  O   UNL     1       0.494  -8.282 -44.694  1.00  0.00    -0.274 OA
ATOM     40  N   UNL     1      -0.468  -6.456 -45.801  1.00  0.00    -0.325 N 
ATOM     41  H   UNL     1      -0.196  -5.624 -46.316  1.00  0.00     0.169 HD
BRANCH  40  42
ATOM     42  C   UNL     1      -1.849  -6.719 -45.724  1.00  0.00     0.041 A 
ATOM     43  C   UNL     1      -2.801  -5.773 -45.332  1.00  0.00     0.029 A 
ATOM     44  C   UNL     1      -2.274  -8.009 -46.065  1.00  0.00     0.029 A 
ATOM     45  C   UNL     1      -4.156  -6.116 -45.272  1.00  0.00     0.041 A 
ATOM     46  C   UNL     1      -3.627  -8.351 -46.008  1.00  0.00     0.041 A 
ATOM     47  C   UNL     1      -4.557  -7.400 -45.609  1.00  0.00     0.123 A 
ATOM     48  F   UNL     1      -5.853  -7.730 -45.544  1.00  0.00    -0.207 F 
ENDBRANCH  40  42
ENDBRANCH  35  38
ENDBRANCH  32  35
ENDBRANCH  29  31
ENDBRANCH   1  24
TORSDOF 12
ENDMDL
