MODEL 1
REMARK minimizedAffinity -9.57955551
REMARK minimizedRMSD -1
REMARK SMILES CS(=O)(=O)CCNCc1ccc(-c2ccc3ncnc(Nc4ccc(OCc5cccc(F)c5)c(Cl)c4)c3c2)o1
REMARK SMILES IDX 13 1 14 2 15 3 16 4 17 5 18 6 19 7 20 8 38 9 39 10 12 11
REMARK SMILES IDX 9 12 10 13 40 14 11 15 8 16 7 17 6 19 5 20 2 21 3 22 4 23
REMARK SMILES IDX 1 24 21 25 22 27 23 28 37 29 24 30 35 31 25 32 36 33 26 34
REMARK SMILES IDX 27 35 28 36 29 37 34 38 30 39 32 40 31 41 33 42
REMARK H PARENT 7 18 21 26
ROOT
ATOM      1  C   UNL     1      -1.804 -17.498 -43.581  1.00  0.00     0.018 A 
ATOM      2  C   UNL     1      -3.157 -17.245 -43.346  1.00  0.00     0.014 A 
ATOM      3  C   UNL     1      -3.948 -18.173 -42.653  1.00  0.00     0.030 A 
ATOM      4  C   UNL     1      -3.432 -19.372 -42.183  1.00  0.00     0.076 A 
ATOM      5  N   UNL     1      -4.242 -20.203 -41.523  1.00  0.00    -0.236 NA
ATOM      6  C   UNL     1      -3.700 -21.339 -41.076  1.00  0.00     0.224 A 
ATOM      7  N   UNL     1      -2.432 -21.727 -41.236  1.00  0.00    -0.219 NA
ATOM      8  C   UNL     1      -1.626 -20.893 -41.917  1.00  0.00     0.141 A 
ATOM      9  C   UNL     1      -2.080 -19.656 -42.419  1.00  0.00     0.044 A 
ATOM     10  C   UNL     1      -1.277 -18.707 -43.112  1.00  0.00     0.026 A 
ENDROOT
BRANCH   1  11
ATOM     11  C   UNL     1      -0.957 -16.535 -44.284  1.00  0.00     0.134 A 
ATOM     12  C   UNL     1       0.129 -14.620 -44.419  1.00  0.00     0.118 A 
ATOM     13  C   UNL     1       0.356 -15.276 -45.611  1.00  0.00     0.047 A 
ATOM     14  O   UNL     1      -0.671 -15.378 -43.611  1.00  0.00    -0.460 OA
ATOM     15  C   UNL     1      -0.342 -16.505 -45.523  1.00  0.00     0.051 A 
BRANCH  12  16
ATOM     16  C   UNL     1       0.572 -13.308 -43.878  1.00  0.00     0.157 C 
BRANCH  16  17
ATOM     17  N   UNL     1      -0.397 -12.265 -44.243  1.00  0.00    -0.309 NA
ATOM     18  H   UNL     1      -0.379 -11.549 -43.508  1.00  0.00     0.123 HD
BRANCH  17  19
ATOM     19  C   UNL     1      -0.098 -11.680 -45.553  1.00  0.00     0.097 C 
BRANCH  19  20
ATOM     20  C   UNL     1      -0.604 -10.245 -45.636  1.00  0.00     0.152 C 
BRANCH  20  21
ATOM     21  S   UNL     1      -2.315 -10.131 -46.139  1.00  0.00     0.148 S 
ATOM     22  O   UNL     1      -2.439 -10.619 -47.502  1.00  0.00    -0.229 OA
ATOM     23  O   UNL     1      -3.122 -10.700 -45.076  1.00  0.00    -0.229 OA
ATOM     24  C   UNL     1      -2.646  -8.384 -46.153  1.00  0.00     0.158 C 
ENDBRANCH  20  21
ENDBRANCH  19  20
ENDBRANCH  17  19
ENDBRANCH  16  17
ENDBRANCH  12  16
ENDBRANCH   1  11
BRANCH   8  25
ATOM     25  N   UNL     1      -0.279 -21.276 -42.168  1.00  0.00    -0.340 N 
ATOM     26  H   UNL     1      -0.253 -22.284 -42.289  1.00  0.00     0.168 HD
BRANCH  25  27
ATOM     27  C   UNL     1       0.900 -20.797 -41.555  1.00  0.00     0.041 A 
ATOM     28  C   UNL     1       0.885 -19.946 -40.445  1.00  0.00     0.030 A 
ATOM     29  C   UNL     1       2.136 -21.059 -42.162  1.00  0.00     0.050 A 
ATOM     30  C   UNL     1       2.069 -19.415 -39.912  1.00  0.00     0.050 A 
ATOM     31  C   UNL     1       3.322 -20.531 -41.637  1.00  0.00     0.085 A 
ATOM     32  C   UNL     1       3.301 -19.702 -40.504  1.00  0.00     0.138 A 
ATOM     33  Cl  UNL     1       4.806 -20.926 -42.440  1.00  0.00    -0.080 Cl
BRANCH  32  34
ATOM     34  O   UNL     1       4.507 -19.228 -40.064  1.00  0.00    -0.487 OA
BRANCH  34  35
ATOM     35  C   UNL     1       4.728 -17.821 -40.108  1.00  0.00     0.265 C 
BRANCH  35  36
ATOM     36  C   UNL     1       5.069 -17.411 -41.522  1.00  0.00    -0.008 A 
ATOM     37  C   UNL     1       6.349 -17.646 -42.052  1.00  0.00     0.007 A 
ATOM     38  C   UNL     1       4.126 -16.742 -42.314  1.00  0.00     0.046 A 
ATOM     39  C   UNL     1       6.674 -17.239 -43.350  1.00  0.00     0.003 A 
ATOM     40  C   UNL     1       4.460 -16.341 -43.604  1.00  0.00     0.123 A 
ATOM     41  C   UNL     1       5.724 -16.585 -44.129  1.00  0.00     0.039 A 
ATOM     42  F   UNL     1       3.549 -15.701 -44.350  1.00  0.00    -0.207 F 
ENDBRANCH  35  36
ENDBRANCH  34  35
ENDBRANCH  32  34
ENDBRANCH  25  27
ENDBRANCH   8  25
TORSDOF 11
ENDMDL
MODEL 2
REMARK minimizedAffinity -9.30949974
REMARK minimizedRMSD -1
REMARK SMILES CS(=O)(=O)CCNCc1ccc(-c2ccc3ncnc(Nc4ccc(OCc5cccc(F)c5)c(Cl)c4)c3c2)o1
REMARK SMILES IDX 13 1 14 2 15 3 16 4 17 5 18 6 19 7 20 8 38 9 39 10 12 11
REMARK SMILES IDX 9 12 10 13 40 14 11 15 8 16 7 17 6 19 5 20 2 21 3 22 4 23
REMARK SMILES IDX 1 24 21 25 22 27 23 28 37 29 24 30 35 31 25 32 36 33 26 34
REMARK SMILES IDX 27 35 28 36 29 37 34 38 30 39 32 40 31 41 33 42
REMARK H PARENT 7 18 21 26
ROOT
ATOM      1  C   UNL     1      -1.801 -17.491 -43.575  1.00  0.00     0.018 A 
ATOM      2  C   UNL     1      -3.156 -17.249 -43.340  1.00  0.00     0.014 A 
ATOM      3  C   UNL     1      -3.941 -18.185 -42.654  1.00  0.00     0.030 A 
ATOM      4  C   UNL     1      -3.418 -19.383 -42.190  1.00  0.00     0.076 A 
ATOM      5  N   UNL     1      -4.224 -20.223 -41.536  1.00  0.00    -0.236 NA
ATOM      6  C   UNL     1      -3.675 -21.359 -41.094  1.00  0.00     0.224 A 
ATOM      7  N   UNL     1      -2.404 -21.737 -41.255  1.00  0.00    -0.219 NA
ATOM      8  C   UNL     1      -1.603 -20.894 -41.930  1.00  0.00     0.141 A 
ATOM      9  C   UNL     1      -2.065 -19.657 -42.426  1.00  0.00     0.044 A 
ATOM     10  C   UNL     1      -1.267 -18.699 -43.112  1.00  0.00     0.026 A 
ENDROOT
BRANCH   1  11
ATOM     11  C   UNL     1      -0.959 -16.519 -44.271  1.00  0.00     0.134 A 
ATOM     12  C   UNL     1       0.137 -14.608 -44.384  1.00  0.00     0.118 A 
ATOM     13  C   UNL     1       0.340 -15.241 -45.593  1.00  0.00     0.047 A 
ATOM     14  O   UNL     1      -0.655 -15.378 -43.579  1.00  0.00    -0.460 OA
ATOM     15  C   UNL     1      -0.363 -16.467 -45.520  1.00  0.00     0.051 A 
BRANCH  12  16
ATOM     16  C   UNL     1       0.597 -13.310 -43.824  1.00  0.00     0.157 C 
BRANCH  16  17
ATOM     17  N   UNL     1      -0.439 -12.286 -44.021  1.00  0.00    -0.309 NA
ATOM     18  H   UNL     1      -0.343 -11.594 -43.271  1.00  0.00     0.123 HD
BRANCH  17  19
ATOM     19  C   UNL     1      -0.330 -11.651 -45.337  1.00  0.00     0.097 C 
BRANCH  19  20
ATOM     20  C   UNL     1       0.965 -10.856 -45.453  1.00  0.00     0.152 C 
BRANCH  20  21
ATOM     21  S   UNL     1       1.022  -9.444 -44.360  1.00  0.00     0.148 S 
ATOM     22  O   UNL     1      -0.176  -9.434 -43.539  1.00  0.00    -0.229 OA
ATOM     23  O   UNL     1       2.337  -9.419 -43.746  1.00  0.00    -0.229 OA
ATOM     24  C   UNL     1       0.944  -8.046 -45.457  1.00  0.00     0.158 C 
ENDBRANCH  20  21
ENDBRANCH  19  20
ENDBRANCH  17  19
ENDBRANCH  16  17
ENDBRANCH  12  16
ENDBRANCH   1  11
BRANCH   8  25
ATOM     25  N   UNL     1      -0.253 -21.268 -42.181  1.00  0.00    -0.340 N 
ATOM     26  H   UNL     1      -0.223 -22.273 -42.318  1.00  0.00     0.168 HD
BRANCH  25  27
ATOM     27  C   UNL     1       0.921 -20.793 -41.556  1.00  0.00     0.041 A 
ATOM     28  C   UNL     1       0.898 -19.948 -40.441  1.00  0.00     0.030 A 
ATOM     29  C   UNL     1       2.162 -21.053 -42.154  1.00  0.00     0.050 A 
ATOM     30  C   UNL     1       2.078 -19.421 -39.896  1.00  0.00     0.050 A 
ATOM     31  C   UNL     1       3.343 -20.528 -41.616  1.00  0.00     0.085 A 
ATOM     32  C   UNL     1       3.313 -19.705 -40.479  1.00  0.00     0.138 A 
ATOM     33  Cl  UNL     1       4.834 -20.921 -42.409  1.00  0.00    -0.080 Cl
BRANCH  32  34
ATOM     34  O   UNL     1       4.517 -19.236 -40.027  1.00  0.00    -0.487 OA
BRANCH  34  35
ATOM     35  C   UNL     1       4.737 -17.828 -40.056  1.00  0.00     0.265 C 
BRANCH  35  36
ATOM     36  C   UNL     1       5.157 -17.415 -41.448  1.00  0.00    -0.008 A 
ATOM     37  C   UNL     1       4.258 -16.763 -42.309  1.00  0.00     0.007 A 
ATOM     38  C   UNL     1       6.440 -17.723 -41.923  1.00  0.00     0.046 A 
ATOM     39  C   UNL     1       4.637 -16.408 -43.607  1.00  0.00     0.003 A 
ATOM     40  C   UNL     1       6.806 -17.366 -43.217  1.00  0.00     0.123 A 
ATOM     41  C   UNL     1       5.917 -16.711 -44.062  1.00  0.00     0.039 A 
ATOM     42  F   UNL     1       8.035 -17.669 -43.659  1.00  0.00    -0.207 F 
ENDBRANCH  35  36
ENDBRANCH  34  35
ENDBRANCH  32  34
ENDBRANCH  25  27
ENDBRANCH   8  25
TORSDOF 11
ENDMDL
MODEL 3
REMARK minimizedAffinity -8.92909813
REMARK minimizedRMSD -1
REMARK SMILES CS(=O)(=O)CCNCc1ccc(-c2ccc3ncnc(Nc4ccc(OCc5cccc(F)c5)c(Cl)c4)c3c2)o1
REMARK SMILES IDX 13 1 14 2 15 3 16 4 17 5 18 6 19 7 20 8 38 9 39 10 12 11
REMARK SMILES IDX 9 12 10 13 40 14 11 15 8 16 7 17 6 19 5 20 2 21 3 22 4 23
REMARK SMILES IDX 1 24 21 25 22 27 23 28 37 29 24 30 35 31 25 32 36 33 26 34
REMARK SMILES IDX 27 35 28 36 29 37 34 38 30 39 32 40 31 41 33 42
REMARK H PARENT 7 18 21 26
ROOT
ATOM      1  C   UNL     1       6.773 -11.853 -44.827  1.00  0.00     0.018 A 
ATOM      2  C   UNL     1       8.006 -12.503 -44.733  1.00  0.00     0.014 A 
ATOM      3  C   UNL     1       8.119 -13.867 -45.034  1.00  0.00     0.030 A 
ATOM      4  C   UNL     1       7.026 -14.626 -45.427  1.00  0.00     0.076 A 
ATOM      5  N   UNL     1       7.210 -15.919 -45.707  1.00  0.00    -0.236 NA
ATOM      6  C   UNL     1       6.133 -16.608 -46.094  1.00  0.00     0.224 A 
ATOM      7  N   UNL     1       4.891 -16.131 -46.215  1.00  0.00    -0.219 NA
ATOM      8  C   UNL     1       4.709 -14.834 -45.914  1.00  0.00     0.141 A 
ATOM      9  C   UNL     1       5.775 -14.001 -45.514  1.00  0.00     0.044 A 
ATOM     10  C   UNL     1       5.665 -12.613 -45.219  1.00  0.00     0.026 A 
ENDROOT
BRANCH   1  11
ATOM     11  C   UNL     1       6.638 -10.426 -44.536  1.00  0.00     0.134 A 
ATOM     12  C   UNL     1       5.444  -8.591 -44.265  1.00  0.00     0.118 A 
ATOM     13  C   UNL     1       6.758  -8.232 -44.046  1.00  0.00     0.047 A 
ATOM     14  O   UNL     1       5.366  -9.921 -44.567  1.00  0.00    -0.460 OA
ATOM     15  C   UNL     1       7.523  -9.410 -44.220  1.00  0.00     0.051 A 
BRANCH  12  16
ATOM     16  C   UNL     1       4.163  -7.837 -44.234  1.00  0.00     0.157 C 
BRANCH  16  17
ATOM     17  N   UNL     1       3.053  -8.751 -43.931  1.00  0.00    -0.309 NA
ATOM     18  H   UNL     1       2.949  -8.792 -42.911  1.00  0.00     0.123 HD
BRANCH  17  19
ATOM     19  C   UNL     1       1.806  -8.322 -44.569  1.00  0.00     0.097 C 
BRANCH  19  20
ATOM     20  C   UNL     1       1.034  -9.517 -45.115  1.00  0.00     0.152 C 
BRANCH  20  21
ATOM     21  S   UNL     1       1.245 -10.996 -44.136  1.00  0.00     0.148 S 
ATOM     22  O   UNL     1       2.485 -11.646 -44.524  1.00  0.00    -0.229 OA
ATOM     23  O   UNL     1       1.001 -10.642 -42.749  1.00  0.00    -0.229 OA
ATOM     24  C   UNL     1      -0.102 -12.043 -44.640  1.00  0.00     0.158 C 
ENDBRANCH  20  21
ENDBRANCH  19  20
ENDBRANCH  17  19
ENDBRANCH  16  17
ENDBRANCH  12  16
ENDBRANCH   1  11
BRANCH   8  25
ATOM     25  N   UNL     1       3.399 -14.283 -45.970  1.00  0.00    -0.340 N 
ATOM     26  H   UNL     1       3.445 -13.322 -45.645  1.00  0.00     0.168 HD
BRANCH  25  27
ATOM     27  C   UNL     1       2.173 -14.891 -45.619  1.00  0.00     0.041 A 
ATOM     28  C   UNL     1       1.140 -15.101 -46.539  1.00  0.00     0.030 A 
ATOM     29  C   UNL     1       1.913 -15.166 -44.269  1.00  0.00     0.050 A 
ATOM     30  C   UNL     1      -0.099 -15.626 -46.143  1.00  0.00     0.050 A 
ATOM     31  C   UNL     1       0.678 -15.688 -43.867  1.00  0.00     0.085 A 
ATOM     32  C   UNL     1      -0.343 -15.924 -44.801  1.00  0.00     0.138 A 
ATOM     33  Cl  UNL     1       0.453 -16.019 -42.180  1.00  0.00    -0.080 Cl
BRANCH  32  34
ATOM     34  O   UNL     1      -1.517 -16.432 -44.316  1.00  0.00    -0.487 OA
BRANCH  34  35
ATOM     35  C   UNL     1      -1.514 -17.772 -43.828  1.00  0.00     0.265 C 
BRANCH  35  36
ATOM     36  C   UNL     1      -2.824 -18.053 -43.128  1.00  0.00    -0.008 A 
ATOM     37  C   UNL     1      -3.862 -17.106 -43.133  1.00  0.00     0.007 A 
ATOM     38  C   UNL     1      -3.007 -19.247 -42.417  1.00  0.00     0.046 A 
ATOM     39  C   UNL     1      -5.062 -17.353 -42.459  1.00  0.00     0.003 A 
ATOM     40  C   UNL     1      -4.205 -19.483 -41.750  1.00  0.00     0.123 A 
ATOM     41  C   UNL     1      -5.233 -18.548 -41.766  1.00  0.00     0.039 A 
ATOM     42  F   UNL     1      -4.365 -20.628 -41.072  1.00  0.00    -0.207 F 
ENDBRANCH  35  36
ENDBRANCH  34  35
ENDBRANCH  32  34
ENDBRANCH  25  27
ENDBRANCH   8  25
TORSDOF 11
ENDMDL
MODEL 4
REMARK minimizedAffinity -8.92364597
REMARK minimizedRMSD -1
REMARK SMILES CS(=O)(=O)CCNCc1ccc(-c2ccc3ncnc(Nc4ccc(OCc5cccc(F)c5)c(Cl)c4)c3c2)o1
REMARK SMILES IDX 13 1 14 2 15 3 16 4 17 5 18 6 19 7 20 8 38 9 39 10 12 11
REMARK SMILES IDX 9 12 10 13 40 14 11 15 8 16 7 17 6 19 5 20 2 21 3 22 4 23
REMARK SMILES IDX 1 24 21 25 22 27 23 28 37 29 24 30 35 31 25 32 36 33 26 34
REMARK SMILES IDX 27 35 28 36 29 37 34 38 30 39 32 40 31 41 33 42
REMARK H PARENT 7 18 21 26
ROOT
ATOM      1  C   UNL     1       0.347 -16.010 -43.449  1.00  0.00     0.018 A 
ATOM      2  C   UNL     1      -0.779 -16.151 -44.263  1.00  0.00     0.014 A 
ATOM      3  C   UNL     1      -1.667 -17.219 -44.076  1.00  0.00     0.030 A 
ATOM      4  C   UNL     1      -1.467 -18.177 -43.092  1.00  0.00     0.076 A 
ATOM      5  N   UNL     1      -2.360 -19.162 -42.966  1.00  0.00    -0.236 NA
ATOM      6  C   UNL     1      -2.135 -20.055 -41.997  1.00  0.00     0.224 A 
ATOM      7  N   UNL     1      -1.100 -20.062 -41.154  1.00  0.00    -0.219 NA
ATOM      8  C   UNL     1      -0.195 -19.077 -41.298  1.00  0.00     0.141 A 
ATOM      9  C   UNL     1      -0.336 -18.067 -42.272  1.00  0.00     0.044 A 
ATOM     10  C   UNL     1       0.556 -16.975 -42.456  1.00  0.00     0.026 A 
ENDROOT
BRANCH   1  11
ATOM     11  C   UNL     1       1.275 -14.892 -43.614  1.00  0.00     0.134 A 
ATOM     12  C   UNL     1       3.304 -14.038 -43.743  1.00  0.00     0.118 A 
ATOM     13  C   UNL     1       2.432 -12.983 -43.906  1.00  0.00     0.047 A 
ATOM     14  O   UNL     1       2.608 -15.200 -43.561  1.00  0.00    -0.460 OA
ATOM     15  C   UNL     1       1.129 -13.531 -43.823  1.00  0.00     0.051 A 
BRANCH  12  16
ATOM     16  C   UNL     1       4.787 -14.142 -43.730  1.00  0.00     0.157 C 
BRANCH  16  17
ATOM     17  N   UNL     1       5.276 -14.139 -42.344  1.00  0.00    -0.309 NA
ATOM     18  H   UNL     1       5.261 -15.107 -42.004  1.00  0.00     0.123 HD
BRANCH  17  19
ATOM     19  C   UNL     1       6.622 -13.569 -42.243  1.00  0.00     0.097 C 
BRANCH  19  20
ATOM     20  C   UNL     1       7.408 -14.226 -41.114  1.00  0.00     0.152 C 
BRANCH  20  21
ATOM     21  S   UNL     1       8.145 -13.046 -39.993  1.00  0.00     0.148 S 
ATOM     22  O   UNL     1       9.580 -13.268 -39.951  1.00  0.00    -0.229 OA
ATOM     23  O   UNL     1       7.611 -11.737 -40.321  1.00  0.00    -0.229 OA
ATOM     24  C   UNL     1       7.478 -13.486 -38.404  1.00  0.00     0.158 C 
ENDBRANCH  20  21
ENDBRANCH  19  20
ENDBRANCH  17  19
ENDBRANCH  16  17
ENDBRANCH  12  16
ENDBRANCH   1  11
BRANCH   8  25
ATOM     25  N   UNL     1       0.958 -19.064 -40.465  1.00  0.00    -0.340 N 
ATOM     26  H   UNL     1       0.879 -18.278 -39.827  1.00  0.00     0.168 HD
BRANCH  25  27
ATOM     27  C   UNL     1       2.303 -19.309 -40.822  1.00  0.00     0.041 A 
ATOM     28  C   UNL     1       2.699 -20.429 -41.561  1.00  0.00     0.030 A 
ATOM     29  C   UNL     1       3.306 -18.483 -40.297  1.00  0.00     0.050 A 
ATOM     30  C   UNL     1       4.051 -20.693 -41.824  1.00  0.00     0.050 A 
ATOM     31  C   UNL     1       4.659 -18.742 -40.554  1.00  0.00     0.085 A 
ATOM     32  C   UNL     1       5.046 -19.851 -41.322  1.00  0.00     0.138 A 
ATOM     33  Cl  UNL     1       5.830 -17.655 -39.882  1.00  0.00    -0.080 Cl
BRANCH  32  34
ATOM     34  O   UNL     1       6.389 -20.027 -41.517  1.00  0.00    -0.487 OA
BRANCH  34  35
ATOM     35  C   UNL     1       6.834 -20.363 -42.829  1.00  0.00     0.265 C 
BRANCH  35  36
ATOM     36  C   UNL     1       6.775 -19.135 -43.709  1.00  0.00    -0.008 A 
ATOM     37  C   UNL     1       7.491 -17.973 -43.372  1.00  0.00     0.007 A 
ATOM     38  C   UNL     1       5.962 -19.117 -44.850  1.00  0.00     0.046 A 
ATOM     39  C   UNL     1       7.412 -16.827 -44.169  1.00  0.00     0.003 A 
ATOM     40  C   UNL     1       5.891 -17.971 -45.635  1.00  0.00     0.123 A 
ATOM     41  C   UNL     1       6.609 -16.827 -45.306  1.00  0.00     0.039 A 
ATOM     42  F   UNL     1       5.108 -17.968 -46.723  1.00  0.00    -0.207 F 
ENDBRANCH  35  36
ENDBRANCH  34  35
ENDBRANCH  32  34
ENDBRANCH  25  27
ENDBRANCH   8  25
TORSDOF 11
ENDMDL
MODEL 5
REMARK minimizedAffinity -8.77620697
REMARK minimizedRMSD -1
REMARK SMILES CS(=O)(=O)CCNCc1ccc(-c2ccc3ncnc(Nc4ccc(OCc5cccc(F)c5)c(Cl)c4)c3c2)o1
REMARK SMILES IDX 13 1 14 2 15 3 16 4 17 5 18 6 19 7 20 8 38 9 39 10 12 11
REMARK SMILES IDX 9 12 10 13 40 14 11 15 8 16 7 17 6 19 5 20 2 21 3 22 4 23
REMARK SMILES IDX 1 24 21 25 22 27 23 28 37 29 24 30 35 31 25 32 36 33 26 34
REMARK SMILES IDX 27 35 28 36 29 37 34 38 30 39 32 40 31 41 33 42
REMARK H PARENT 7 18 21 26
ROOT
ATOM      1  C   UNL     1       2.947  -8.235 -44.425  1.00  0.00     0.018 A 
ATOM      2  C   UNL     1       2.188  -7.067 -44.520  1.00  0.00     0.014 A 
ATOM      3  C   UNL     1       0.856  -7.114 -44.953  1.00  0.00     0.030 A 
ATOM      4  C   UNL     1       0.240  -8.306 -45.309  1.00  0.00     0.076 A 
ATOM      5  N   UNL     1      -1.035  -8.275 -45.703  1.00  0.00    -0.236 NA
ATOM      6  C   UNL     1      -1.592  -9.447 -46.023  1.00  0.00     0.224 A 
ATOM      7  N   UNL     1      -0.992 -10.640 -45.998  1.00  0.00    -0.219 NA
ATOM      8  C   UNL     1       0.298 -10.661 -45.618  1.00  0.00     0.141 A 
ATOM      9  C   UNL     1       0.986  -9.490 -45.237  1.00  0.00     0.044 A 
ATOM     10  C   UNL     1       2.334  -9.441 -44.785  1.00  0.00     0.026 A 
ENDROOT
BRANCH   1  11
ATOM     11  C   UNL     1       4.332  -8.211 -43.957  1.00  0.00     0.134 A 
ATOM     12  C   UNL     1       6.323  -9.123 -43.691  1.00  0.00     0.118 A 
ATOM     13  C   UNL     1       6.400  -7.863 -43.137  1.00  0.00     0.047 A 
ATOM     14  O   UNL     1       5.069  -9.341 -44.187  1.00  0.00    -0.460 OA
ATOM     15  C   UNL     1       5.122  -7.277 -43.308  1.00  0.00     0.051 A 
BRANCH  12  16
ATOM     16  C   UNL     1       7.302 -10.231 -43.842  1.00  0.00     0.157 C 
BRANCH  16  17
ATOM     17  N   UNL     1       6.594 -11.517 -43.911  1.00  0.00    -0.309 NA
ATOM     18  H   UNL     1       5.587 -11.321 -43.923  1.00  0.00     0.123 HD
BRANCH  17  19
ATOM     19  C   UNL     1       6.991 -12.294 -45.088  1.00  0.00     0.097 C 
BRANCH  19  20
ATOM     20  C   UNL     1       6.227 -13.611 -45.155  1.00  0.00     0.152 C 
BRANCH  20  21
ATOM     21  S   UNL     1       4.716 -13.595 -44.203  1.00  0.00     0.148 S 
ATOM     22  O   UNL     1       5.043 -13.758 -42.796  1.00  0.00    -0.229 OA
ATOM     23  O   UNL     1       3.929 -12.461 -44.649  1.00  0.00    -0.229 OA
ATOM     24  C   UNL     1       3.854 -15.057 -44.736  1.00  0.00     0.158 C 
ENDBRANCH  20  21
ENDBRANCH  19  20
ENDBRANCH  17  19
ENDBRANCH  16  17
ENDBRANCH  12  16
ENDBRANCH   1  11
BRANCH   8  25
ATOM     25  N   UNL     1       1.007 -11.895 -45.625  1.00  0.00    -0.340 N 
ATOM     26  H   UNL     1       1.501 -11.971 -46.508  1.00  0.00     0.168 HD
BRANCH  25  27
ATOM     27  C   UNL     1       0.578 -13.158 -45.160  1.00  0.00     0.041 A 
ATOM     28  C   UNL     1       0.463 -13.466 -43.800  1.00  0.00     0.030 A 
ATOM     29  C   UNL     1       0.397 -14.196 -46.084  1.00  0.00     0.050 A 
ATOM     30  C   UNL     1       0.120 -14.755 -43.367  1.00  0.00     0.050 A 
ATOM     31  C   UNL     1       0.057 -15.487 -45.658  1.00  0.00     0.085 A 
ATOM     32  C   UNL     1      -0.085 -15.780 -44.293  1.00  0.00     0.138 A 
ATOM     33  Cl  UNL     1      -0.168 -16.703 -46.872  1.00  0.00    -0.080 Cl
BRANCH  32  34
ATOM     34  O   UNL     1      -0.416 -17.069 -43.970  1.00  0.00    -0.487 OA
BRANCH  34  35
ATOM     35  C   UNL     1      -1.081 -17.296 -42.731  1.00  0.00     0.265 C 
BRANCH  35  36
ATOM     36  C   UNL     1      -0.751 -18.685 -42.233  1.00  0.00    -0.008 A 
ATOM     37  C   UNL     1      -1.668 -19.740 -42.379  1.00  0.00     0.007 A 
ATOM     38  C   UNL     1       0.459 -18.932 -41.569  1.00  0.00     0.046 A 
ATOM     39  C   UNL     1      -1.375 -21.018 -41.891  1.00  0.00     0.003 A 
ATOM     40  C   UNL     1       0.739 -20.207 -41.087  1.00  0.00     0.123 A 
ATOM     41  C   UNL     1      -0.165 -21.251 -41.244  1.00  0.00     0.039 A 
ATOM     42  F   UNL     1       1.899 -20.429 -40.453  1.00  0.00    -0.207 F 
ENDBRANCH  35  36
ENDBRANCH  34  35
ENDBRANCH  32  34
ENDBRANCH  25  27
ENDBRANCH   8  25
TORSDOF 11
ENDMDL
MODEL 6
REMARK minimizedAffinity -8.75653458
REMARK minimizedRMSD -1
REMARK SMILES CS(=O)(=O)CCNCc1ccc(-c2ccc3ncnc(Nc4ccc(OCc5cccc(F)c5)c(Cl)c4)c3c2)o1
REMARK SMILES IDX 13 1 14 2 15 3 16 4 17 5 18 6 19 7 20 8 38 9 39 10 12 11
REMARK SMILES IDX 9 12 10 13 40 14 11 15 8 16 7 17 6 19 5 20 2 21 3 22 4 23
REMARK SMILES IDX 1 24 21 25 22 27 23 28 37 29 24 30 35 31 25 32 36 33 26 34
REMARK SMILES IDX 27 35 28 36 29 37 34 38 30 39 32 40 31 41 33 42
REMARK H PARENT 7 18 21 26
ROOT
ATOM      1  C   UNL     1       2.519 -19.010 -41.001  1.00  0.00     0.018 A 
ATOM      2  C   UNL     1       2.424 -20.374 -40.717  1.00  0.00     0.014 A 
ATOM      3  C   UNL     1       1.218 -21.062 -40.907  1.00  0.00     0.030 A 
ATOM      4  C   UNL     1       0.076 -20.427 -41.373  1.00  0.00     0.076 A 
ATOM      5  N   UNL     1      -1.036 -21.148 -41.539  1.00  0.00    -0.236 NA
ATOM      6  C   UNL     1      -2.108 -20.499 -42.002  1.00  0.00     0.224 A 
ATOM      7  N   UNL     1      -2.177 -19.199 -42.303  1.00  0.00    -0.219 NA
ATOM      8  C   UNL     1      -1.059 -18.475 -42.116  1.00  0.00     0.141 A 
ATOM      9  C   UNL     1       0.140 -19.055 -41.651  1.00  0.00     0.044 A 
ATOM     10  C   UNL     1       1.369 -18.362 -41.469  1.00  0.00     0.026 A 
ENDROOT
BRANCH   1  11
ATOM     11  C   UNL     1       3.773 -18.278 -40.829  1.00  0.00     0.134 A 
ATOM     12  C   UNL     1       5.364 -16.929 -41.546  1.00  0.00     0.118 A 
ATOM     13  C   UNL     1       5.706 -17.276 -40.256  1.00  0.00     0.047 A 
ATOM     14  O   UNL     1       4.194 -17.539 -41.901  1.00  0.00    -0.460 OA
ATOM     15  C   UNL     1       4.684 -18.141 -39.796  1.00  0.00     0.051 A 
BRANCH  12  16
ATOM     16  C   UNL     1       6.001 -16.060 -42.570  1.00  0.00     0.157 C 
BRANCH  16  17
ATOM     17  N   UNL     1       5.840 -14.648 -42.196  1.00  0.00    -0.309 NA
ATOM     18  H   UNL     1       5.348 -14.615 -41.297  1.00  0.00     0.123 HD
BRANCH  17  19
ATOM     19  C   UNL     1       7.130 -13.957 -42.114  1.00  0.00     0.097 C 
BRANCH  19  20
ATOM     20  C   UNL     1       7.095 -12.645 -42.889  1.00  0.00     0.152 C 
BRANCH  20  21
ATOM     21  S   UNL     1       6.342 -12.802 -44.501  1.00  0.00     0.148 S 
ATOM     22  O   UNL     1       6.880 -13.979 -45.161  1.00  0.00    -0.229 OA
ATOM     23  O   UNL     1       4.910 -12.640 -44.333  1.00  0.00    -0.229 OA
ATOM     24  C   UNL     1       6.918 -11.370 -45.387  1.00  0.00     0.158 C 
ENDBRANCH  20  21
ENDBRANCH  19  20
ENDBRANCH  17  19
ENDBRANCH  16  17
ENDBRANCH  12  16
ENDBRANCH   1  11
BRANCH   8  25
ATOM     25  N   UNL     1      -1.086 -17.075 -42.366  1.00  0.00    -0.340 N 
ATOM     26  H   UNL     1      -2.047 -16.759 -42.294  1.00  0.00     0.168 HD
BRANCH  25  27
ATOM     27  C   UNL     1      -0.370 -16.341 -43.337  1.00  0.00     0.041 A 
ATOM     28  C   UNL     1       0.640 -15.431 -43.008  1.00  0.00     0.030 A 
ATOM     29  C   UNL     1      -0.777 -16.410 -44.677  1.00  0.00     0.050 A 
ATOM     30  C   UNL     1       1.273 -14.651 -43.987  1.00  0.00     0.050 A 
ATOM     31  C   UNL     1      -0.152 -15.632 -45.660  1.00  0.00     0.085 A 
ATOM     32  C   UNL     1       0.882 -14.743 -45.324  1.00  0.00     0.138 A 
ATOM     33  Cl  UNL     1      -0.706 -15.799 -47.293  1.00  0.00    -0.080 Cl
BRANCH  32  34
ATOM     34  O   UNL     1       1.432 -14.022 -46.350  1.00  0.00    -0.487 OA
BRANCH  34  35
ATOM     35  C   UNL     1       1.610 -12.621 -46.159  1.00  0.00     0.265 C 
BRANCH  35  36
ATOM     36  C   UNL     1       0.257 -11.950 -46.083  1.00  0.00    -0.008 A 
ATOM     37  C   UNL     1      -0.653 -12.040 -47.149  1.00  0.00     0.007 A 
ATOM     38  C   UNL     1      -0.091 -11.181 -44.963  1.00  0.00     0.046 A 
ATOM     39  C   UNL     1      -1.892 -11.394 -47.091  1.00  0.00     0.003 A 
ATOM     40  C   UNL     1      -1.326 -10.543 -44.917  1.00  0.00     0.123 A 
ATOM     41  C   UNL     1      -2.229 -10.643 -45.968  1.00  0.00     0.039 A 
ATOM     42  F   UNL     1      -1.646  -9.810 -43.841  1.00  0.00    -0.207 F 
ENDBRANCH  35  36
ENDBRANCH  34  35
ENDBRANCH  32  34
ENDBRANCH  25  27
ENDBRANCH   8  25
TORSDOF 11
ENDMDL
MODEL 7
REMARK minimizedAffinity -8.75238705
REMARK minimizedRMSD -1
REMARK SMILES CS(=O)(=O)CCNCc1ccc(-c2ccc3ncnc(Nc4ccc(OCc5cccc(F)c5)c(Cl)c4)c3c2)o1
REMARK SMILES IDX 13 1 14 2 15 3 16 4 17 5 18 6 19 7 20 8 38 9 39 10 12 11
REMARK SMILES IDX 9 12 10 13 40 14 11 15 8 16 7 17 6 19 5 20 2 21 3 22 4 23
REMARK SMILES IDX 1 24 21 25 22 27 23 28 37 29 24 30 35 31 25 32 36 33 26 34
REMARK SMILES IDX 27 35 28 36 29 37 34 38 30 39 32 40 31 41 33 42
REMARK H PARENT 7 18 21 26
ROOT
ATOM      1  C   UNL     1       2.687 -18.957 -41.075  1.00  0.00     0.018 A 
ATOM      2  C   UNL     1       2.633 -20.340 -40.890  1.00  0.00     0.014 A 
ATOM      3  C   UNL     1       1.447 -21.048 -41.131  1.00  0.00     0.030 A 
ATOM      4  C   UNL     1       0.286 -20.415 -41.552  1.00  0.00     0.076 A 
ATOM      5  N   UNL     1      -0.804 -21.155 -41.771  1.00  0.00    -0.236 NA
ATOM      6  C   UNL     1      -1.895 -20.506 -42.188  1.00  0.00     0.224 A 
ATOM      7  N   UNL     1      -2.002 -19.190 -42.394  1.00  0.00    -0.219 NA
ATOM      8  C   UNL     1      -0.906 -18.449 -42.154  1.00  0.00     0.141 A 
ATOM      9  C   UNL     1       0.310 -19.026 -41.730  1.00  0.00     0.044 A 
ATOM     10  C   UNL     1       1.519 -18.311 -41.497  1.00  0.00     0.026 A 
ENDROOT
BRANCH   1  11
ATOM     11  C   UNL     1       3.919 -18.203 -40.849  1.00  0.00     0.134 A 
ATOM     12  C   UNL     1       5.399 -16.664 -41.401  1.00  0.00     0.118 A 
ATOM     13  C   UNL     1       5.844 -17.220 -40.220  1.00  0.00     0.047 A 
ATOM     14  O   UNL     1       4.233 -17.260 -41.790  1.00  0.00    -0.460 OA
ATOM     15  C   UNL     1       4.894 -18.207 -39.866  1.00  0.00     0.051 A 
BRANCH  12  16
ATOM     16  C   UNL     1       5.926 -15.591 -42.285  1.00  0.00     0.157 C 
BRANCH  16  17
ATOM     17  N   UNL     1       4.827 -14.720 -42.724  1.00  0.00    -0.309 NA
ATOM     18  H   UNL     1       4.912 -13.830 -42.221  1.00  0.00     0.123 HD
BRANCH  17  19
ATOM     19  C   UNL     1       4.847 -14.507 -44.173  1.00  0.00     0.097 C 
BRANCH  19  20
ATOM     20  C   UNL     1       4.206 -15.680 -44.905  1.00  0.00     0.152 C 
BRANCH  20  21
ATOM     21  S   UNL     1       5.389 -16.697 -45.775  1.00  0.00     0.148 S 
ATOM     22  O   UNL     1       6.526 -15.877 -46.156  1.00  0.00    -0.229 OA
ATOM     23  O   UNL     1       5.581 -17.907 -44.997  1.00  0.00    -0.229 OA
ATOM     24  C   UNL     1       4.538 -17.174 -47.262  1.00  0.00     0.158 C 
ENDBRANCH  20  21
ENDBRANCH  19  20
ENDBRANCH  17  19
ENDBRANCH  16  17
ENDBRANCH  12  16
ENDBRANCH   1  11
BRANCH   8  25
ATOM     25  N   UNL     1      -0.974 -17.036 -42.302  1.00  0.00    -0.340 N 
ATOM     26  H   UNL     1      -1.930 -16.745 -42.126  1.00  0.00     0.168 HD
BRANCH  25  27
ATOM     27  C   UNL     1      -0.356 -16.223 -43.278  1.00  0.00     0.041 A 
ATOM     28  C   UNL     1       0.444 -15.122 -42.951  1.00  0.00     0.030 A 
ATOM     29  C   UNL     1      -0.666 -16.429 -44.629  1.00  0.00     0.050 A 
ATOM     30  C   UNL     1       0.972 -14.281 -43.941  1.00  0.00     0.050 A 
ATOM     31  C   UNL     1      -0.144 -15.591 -45.622  1.00  0.00     0.085 A 
ATOM     32  C   UNL     1       0.682 -14.506 -45.288  1.00  0.00     0.138 A 
ATOM     33  Cl  UNL     1      -0.562 -15.934 -47.269  1.00  0.00    -0.080 Cl
BRANCH  32  34
ATOM     34  O   UNL     1       1.143 -13.740 -46.324  1.00  0.00    -0.487 OA
BRANCH  34  35
ATOM     35  C   UNL     1       1.284 -12.338 -46.107  1.00  0.00     0.265 C 
BRANCH  35  36
ATOM     36  C   UNL     1      -0.086 -11.699 -46.065  1.00  0.00    -0.008 A 
ATOM     37  C   UNL     1      -0.978 -11.834 -47.142  1.00  0.00     0.007 A 
ATOM     38  C   UNL     1      -0.470 -10.915 -44.968  1.00  0.00     0.046 A 
ATOM     39  C   UNL     1      -2.233 -11.217 -47.117  1.00  0.00     0.003 A 
ATOM     40  C   UNL     1      -1.721 -10.306 -44.953  1.00  0.00     0.123 A 
ATOM     41  C   UNL     1      -2.605 -10.451 -46.016  1.00  0.00     0.039 A 
ATOM     42  F   UNL     1      -2.074  -9.558 -43.898  1.00  0.00    -0.207 F 
ENDBRANCH  35  36
ENDBRANCH  34  35
ENDBRANCH  32  34
ENDBRANCH  25  27
ENDBRANCH   8  25
TORSDOF 11
ENDMDL
MODEL 8
REMARK minimizedAffinity -8.7069025
REMARK minimizedRMSD -1
REMARK SMILES CS(=O)(=O)CCNCc1ccc(-c2ccc3ncnc(Nc4ccc(OCc5cccc(F)c5)c(Cl)c4)c3c2)o1
REMARK SMILES IDX 13 1 14 2 15 3 16 4 17 5 18 6 19 7 20 8 38 9 39 10 12 11
REMARK SMILES IDX 9 12 10 13 40 14 11 15 8 16 7 17 6 19 5 20 2 21 3 22 4 23
REMARK SMILES IDX 1 24 21 25 22 27 23 28 37 29 24 30 35 31 25 32 36 33 26 34
REMARK SMILES IDX 27 35 28 36 29 37 34 38 30 39 32 40 31 41 33 42
REMARK H PARENT 7 18 21 26
ROOT
ATOM      1  C   UNL     1      -0.099 -16.234 -43.302  1.00  0.00     0.018 A 
ATOM      2  C   UNL     1      -1.370 -16.485 -43.822  1.00  0.00     0.014 A 
ATOM      3  C   UNL     1      -2.059 -17.659 -43.490  1.00  0.00     0.030 A 
ATOM      4  C   UNL     1      -1.514 -18.618 -42.647  1.00  0.00     0.076 A 
ATOM      5  N   UNL     1      -2.233 -19.708 -42.368  1.00  0.00    -0.236 NA
ATOM      6  C   UNL     1      -1.675 -20.598 -41.541  1.00  0.00     0.224 A 
ATOM      7  N   UNL     1      -0.466 -20.506 -40.980  1.00  0.00    -0.219 NA
ATOM      8  C   UNL     1       0.259 -19.414 -41.281  1.00  0.00     0.141 A 
ATOM      9  C   UNL     1      -0.233 -18.397 -42.125  1.00  0.00     0.044 A 
ATOM     10  C   UNL     1       0.459 -17.198 -42.454  1.00  0.00     0.026 A 
ENDROOT
BRANCH   1  11
ATOM     11  C   UNL     1       0.629 -15.006 -43.620  1.00  0.00     0.134 A 
ATOM     12  C   UNL     1       0.740 -12.827 -43.943  1.00  0.00     0.118 A 
ATOM     13  C   UNL     1       2.018 -13.309 -44.128  1.00  0.00     0.047 A 
ATOM     14  O   UNL     1      -0.109 -13.853 -43.639  1.00  0.00    -0.460 OA
ATOM     15  C   UNL     1       1.947 -14.708 -43.921  1.00  0.00     0.051 A 
BRANCH  12  16
ATOM     16  C   UNL     1       0.144 -11.466 -44.009  1.00  0.00     0.157 C 
BRANCH  16  17
ATOM     17  N   UNL     1      -1.178 -11.530 -44.648  1.00  0.00    -0.309 NA
ATOM     18  H   UNL     1      -1.853 -11.086 -44.018  1.00  0.00     0.123 HD
BRANCH  17  19
ATOM     19  C   UNL     1      -1.179 -10.879 -45.961  1.00  0.00     0.097 C 
BRANCH  19  20
ATOM     20  C   UNL     1      -2.406  -9.991 -46.127  1.00  0.00     0.152 C 
BRANCH  20  21
ATOM     21  S   UNL     1      -3.231  -9.636 -44.582  1.00  0.00     0.148 S 
ATOM     22  O   UNL     1      -3.984 -10.808 -44.170  1.00  0.00    -0.229 OA
ATOM     23  O   UNL     1      -2.253  -9.038 -43.692  1.00  0.00    -0.229 OA
ATOM     24  C   UNL     1      -4.394  -8.357 -44.998  1.00  0.00     0.158 C 
ENDBRANCH  20  21
ENDBRANCH  19  20
ENDBRANCH  17  19
ENDBRANCH  16  17
ENDBRANCH  12  16
ENDBRANCH   1  11
BRANCH   8  25
ATOM     25  N   UNL     1       1.576 -19.287 -40.758  1.00  0.00    -0.340 N 
ATOM     26  H   UNL     1       1.599 -18.474 -40.151  1.00  0.00     0.168 HD
BRANCH  25  27
ATOM     27  C   UNL     1       2.808 -19.472 -41.424  1.00  0.00     0.041 A 
ATOM     28  C   UNL     1       3.189 -20.695 -41.987  1.00  0.00     0.030 A 
ATOM     29  C   UNL     1       3.756 -18.440 -41.399  1.00  0.00     0.050 A 
ATOM     30  C   UNL     1       4.455 -20.874 -42.563  1.00  0.00     0.050 A 
ATOM     31  C   UNL     1       5.022 -18.613 -41.971  1.00  0.00     0.085 A 
ATOM     32  C   UNL     1       5.386 -19.834 -42.560  1.00  0.00     0.138 A 
ATOM     33  Cl  UNL     1       6.122 -17.274 -41.913  1.00  0.00    -0.080 Cl
BRANCH  32  34
ATOM     34  O   UNL     1       6.645 -19.912 -43.090  1.00  0.00    -0.487 OA
BRANCH  34  35
ATOM     35  C   UNL     1       6.767 -20.047 -44.504  1.00  0.00     0.265 C 
BRANCH  35  36
ATOM     36  C   UNL     1       6.860 -18.675 -45.132  1.00  0.00    -0.008 A 
ATOM     37  C   UNL     1       8.058 -17.943 -45.090  1.00  0.00     0.007 A 
ATOM     38  C   UNL     1       5.734 -18.088 -45.726  1.00  0.00     0.046 A 
ATOM     39  C   UNL     1       8.136 -16.661 -45.644  1.00  0.00     0.003 A 
ATOM     40  C   UNL     1       5.823 -16.812 -46.274  1.00  0.00     0.123 A 
ATOM     41  C   UNL     1       7.012 -16.095 -46.239  1.00  0.00     0.039 A 
ATOM     42  F   UNL     1       4.737 -16.262 -46.836  1.00  0.00    -0.207 F 
ENDBRANCH  35  36
ENDBRANCH  34  35
ENDBRANCH  32  34
ENDBRANCH  25  27
ENDBRANCH   8  25
TORSDOF 11
ENDMDL
MODEL 9
REMARK minimizedAffinity -8.70292854
REMARK minimizedRMSD -1
REMARK SMILES CS(=O)(=O)CCNCc1ccc(-c2ccc3ncnc(Nc4ccc(OCc5cccc(F)c5)c(Cl)c4)c3c2)o1
REMARK SMILES IDX 13 1 14 2 15 3 16 4 17 5 18 6 19 7 20 8 38 9 39 10 12 11
REMARK SMILES IDX 9 12 10 13 40 14 11 15 8 16 7 17 6 19 5 20 2 21 3 22 4 23
REMARK SMILES IDX 1 24 21 25 22 27 23 28 37 29 24 30 35 31 25 32 36 33 26 34
REMARK SMILES IDX 27 35 28 36 29 37 34 38 30 39 32 40 31 41 33 42
REMARK H PARENT 7 18 21 26
ROOT
ATOM      1  C   UNL     1       2.861 -18.876 -41.056  1.00  0.00     0.018 A 
ATOM      2  C   UNL     1       2.806 -20.263 -40.903  1.00  0.00     0.014 A 
ATOM      3  C   UNL     1       1.622 -20.965 -41.166  1.00  0.00     0.030 A 
ATOM      4  C   UNL     1       0.463 -20.323 -41.577  1.00  0.00     0.076 A 
ATOM      5  N   UNL     1      -0.626 -21.058 -41.819  1.00  0.00    -0.236 NA
ATOM      6  C   UNL     1      -1.715 -20.400 -42.226  1.00  0.00     0.224 A 
ATOM      7  N   UNL     1      -1.821 -19.080 -42.403  1.00  0.00    -0.219 NA
ATOM      8  C   UNL     1      -0.727 -18.345 -42.140  1.00  0.00     0.141 A 
ATOM      9  C   UNL     1       0.487 -18.930 -41.724  1.00  0.00     0.044 A 
ATOM     10  C   UNL     1       1.694 -18.221 -41.468  1.00  0.00     0.026 A 
ENDROOT
BRANCH   1  11
ATOM     11  C   UNL     1       4.091 -18.127 -40.806  1.00  0.00     0.134 A 
ATOM     12  C   UNL     1       5.634 -16.656 -41.373  1.00  0.00     0.118 A 
ATOM     13  C   UNL     1       5.994 -17.131 -40.129  1.00  0.00     0.047 A 
ATOM     14  O   UNL     1       4.483 -17.261 -41.791  1.00  0.00    -0.460 OA
ATOM     15  C   UNL     1       5.003 -18.075 -39.766  1.00  0.00     0.051 A 
BRANCH  12  16
ATOM     16  C   UNL     1       6.237 -15.659 -42.296  1.00  0.00     0.157 C 
BRANCH  16  17
ATOM     17  N   UNL     1       7.630 -16.026 -42.587  1.00  0.00    -0.309 NA
ATOM     18  H   UNL     1       7.742 -16.053 -43.606  1.00  0.00     0.123 HD
BRANCH  17  19
ATOM     19  C   UNL     1       8.578 -15.088 -41.980  1.00  0.00     0.097 C 
BRANCH  19  20
ATOM     20  C   UNL     1       7.924 -13.733 -41.740  1.00  0.00     0.152 C 
BRANCH  20  21
ATOM     21  S   UNL     1       8.429 -12.971 -40.205  1.00  0.00     0.148 S 
ATOM     22  O   UNL     1       9.832 -13.268 -39.971  1.00  0.00    -0.229 OA
ATOM     23  O   UNL     1       7.959 -11.598 -40.222  1.00  0.00    -0.229 OA
ATOM     24  C   UNL     1       7.477 -13.822 -38.967  1.00  0.00     0.158 C 
ENDBRANCH  20  21
ENDBRANCH  19  20
ENDBRANCH  17  19
ENDBRANCH  16  17
ENDBRANCH  12  16
ENDBRANCH   1  11
BRANCH   8  25
ATOM     25  N   UNL     1      -0.795 -16.928 -42.256  1.00  0.00    -0.340 N 
ATOM     26  H   UNL     1      -1.732 -16.634 -42.000  1.00  0.00     0.168 HD
BRANCH  25  27
ATOM     27  C   UNL     1      -0.249 -16.101 -43.263  1.00  0.00     0.041 A 
ATOM     28  C   UNL     1       0.483 -14.943 -42.978  1.00  0.00     0.030 A 
ATOM     29  C   UNL     1      -0.569 -16.360 -44.603  1.00  0.00     0.050 A 
ATOM     30  C   UNL     1       0.937 -14.094 -43.998  1.00  0.00     0.050 A 
ATOM     31  C   UNL     1      -0.121 -15.514 -45.625  1.00  0.00     0.085 A 
ATOM     32  C   UNL     1       0.639 -14.371 -45.333  1.00  0.00     0.138 A 
ATOM     33  Cl  UNL     1      -0.546 -15.924 -47.255  1.00  0.00    -0.080 Cl
BRANCH  32  34
ATOM     34  O   UNL     1       1.030 -13.602 -46.396  1.00  0.00    -0.487 OA
BRANCH  34  35
ATOM     35  C   UNL     1       1.177 -12.200 -46.187  1.00  0.00     0.265 C 
BRANCH  35  36
ATOM     36  C   UNL     1      -0.189 -11.555 -46.134  1.00  0.00    -0.008 A 
ATOM     37  C   UNL     1      -1.121 -11.756 -47.167  1.00  0.00     0.007 A 
ATOM     38  C   UNL     1      -0.531 -10.702 -45.076  1.00  0.00     0.046 A 
ATOM     39  C   UNL     1      -2.373 -11.135 -47.134  1.00  0.00     0.003 A 
ATOM     40  C   UNL     1      -1.780 -10.089 -45.054  1.00  0.00     0.123 A 
ATOM     41  C   UNL     1      -2.704 -10.299 -46.071  1.00  0.00     0.039 A 
ATOM     42  F   UNL     1      -2.094  -9.274 -44.036  1.00  0.00    -0.207 F 
ENDBRANCH  35  36
ENDBRANCH  34  35
ENDBRANCH  32  34
ENDBRANCH  25  27
ENDBRANCH   8  25
TORSDOF 11
ENDMDL
MODEL 10
REMARK minimizedAffinity -8.63442707
REMARK minimizedRMSD -1
REMARK SMILES CS(=O)(=O)CCNCc1ccc(-c2ccc3ncnc(Nc4ccc(OCc5cccc(F)c5)c(Cl)c4)c3c2)o1
REMARK SMILES IDX 13 1 14 2 15 3 16 4 17 5 18 6 19 7 20 8 38 9 39 10 12 11
REMARK SMILES IDX 9 12 10 13 40 14 11 15 8 16 7 17 6 19 5 20 2 21 3 22 4 23
REMARK SMILES IDX 1 24 21 25 22 27 23 28 37 29 24 30 35 31 25 32 36 33 26 34
REMARK SMILES IDX 27 35 28 36 29 37 34 38 30 39 32 40 31 41 33 42
REMARK H PARENT 7 18 21 26
ROOT
ATOM      1  C   UNL     1       6.100 -17.083 -44.454  1.00  0.00     0.018 A 
ATOM      2  C   UNL     1       7.019 -17.620 -45.357  1.00  0.00     0.014 A 
ATOM      3  C   UNL     1       7.384 -18.971 -45.286  1.00  0.00     0.030 A 
ATOM      4  C   UNL     1       6.863 -19.824 -44.324  1.00  0.00     0.076 A 
ATOM      5  N   UNL     1       7.250 -21.102 -44.322  1.00  0.00    -0.236 NA
ATOM      6  C   UNL     1       6.712 -21.890 -43.387  1.00  0.00     0.224 A 
ATOM      7  N   UNL     1       5.837 -21.520 -42.448  1.00  0.00    -0.219 NA
ATOM      8  C   UNL     1       5.466 -20.227 -42.444  1.00  0.00     0.141 A 
ATOM      9  C   UNL     1       5.950 -19.305 -43.396  1.00  0.00     0.044 A 
ATOM     10  C   UNL     1       5.572 -17.936 -43.478  1.00  0.00     0.026 A 
ENDROOT
BRANCH   1  11
ATOM     11  C   UNL     1       5.690 -15.681 -44.523  1.00  0.00     0.134 A 
ATOM     12  C   UNL     1       6.121 -13.523 -44.667  1.00  0.00     0.118 A 
ATOM     13  C   UNL     1       4.748 -13.638 -44.622  1.00  0.00     0.047 A 
ATOM     14  O   UNL     1       6.699 -14.759 -44.603  1.00  0.00    -0.460 OA
ATOM     15  C   UNL     1       4.472 -15.024 -44.530  1.00  0.00     0.051 A 
BRANCH  12  16
ATOM     16  C   UNL     1       7.043 -12.360 -44.767  1.00  0.00     0.157 C 
BRANCH  16  17
ATOM     17  N   UNL     1       6.296 -11.111 -44.566  1.00  0.00    -0.309 NA
ATOM     18  H   UNL     1       5.426 -11.342 -44.074  1.00  0.00     0.123 HD
BRANCH  17  19
ATOM     19  C   UNL     1       7.077 -10.126 -43.814  1.00  0.00     0.097 C 
BRANCH  19  20
ATOM     20  C   UNL     1       6.345  -8.791 -43.741  1.00  0.00     0.152 C 
BRANCH  20  21
ATOM     21  S   UNL     1       6.939  -7.598 -44.930  1.00  0.00     0.148 S 
ATOM     22  O   UNL     1       6.519  -6.270 -44.516  1.00  0.00    -0.229 OA
ATOM     23  O   UNL     1       8.341  -7.884 -45.174  1.00  0.00    -0.229 OA
ATOM     24  C   UNL     1       6.066  -8.005 -46.425  1.00  0.00     0.158 C 
ENDBRANCH  20  21
ENDBRANCH  19  20
ENDBRANCH  17  19
ENDBRANCH  16  17
ENDBRANCH  12  16
ENDBRANCH   1  11
BRANCH   8  25
ATOM     25  N   UNL     1       4.579 -19.760 -41.435  1.00  0.00    -0.340 N 
ATOM     26  H   UNL     1       4.804 -20.238 -40.568  1.00  0.00     0.168 HD
BRANCH  25  27
ATOM     27  C   UNL     1       3.195 -19.494 -41.535  1.00  0.00     0.041 A 
ATOM     28  C   UNL     1       2.653 -18.217 -41.351  1.00  0.00     0.030 A 
ATOM     29  C   UNL     1       2.305 -20.568 -41.677  1.00  0.00     0.050 A 
ATOM     30  C   UNL     1       1.268 -17.999 -41.368  1.00  0.00     0.050 A 
ATOM     31  C   UNL     1       0.921 -20.358 -41.693  1.00  0.00     0.085 A 
ATOM     32  C   UNL     1       0.387 -19.069 -41.538  1.00  0.00     0.138 A 
ATOM     33  Cl  UNL     1      -0.103 -21.741 -41.897  1.00  0.00    -0.080 Cl
BRANCH  32  34
ATOM     34  O   UNL     1      -0.978 -18.960 -41.563  1.00  0.00    -0.487 OA
BRANCH  34  35
ATOM     35  C   UNL     1      -1.594 -18.577 -42.789  1.00  0.00     0.265 C 
BRANCH  35  36
ATOM     36  C   UNL     1      -3.057 -18.282 -42.544  1.00  0.00    -0.008 A 
ATOM     37  C   UNL     1      -3.708 -17.244 -43.231  1.00  0.00     0.007 A 
ATOM     38  C   UNL     1      -3.777 -19.011 -41.587  1.00  0.00     0.046 A 
ATOM     39  C   UNL     1      -5.053 -16.951 -42.982  1.00  0.00     0.003 A 
ATOM     40  C   UNL     1      -5.114 -18.711 -41.347  1.00  0.00     0.123 A 
ATOM     41  C   UNL     1      -5.758 -17.690 -42.036  1.00  0.00     0.039 A 
ATOM     42  F   UNL     1      -5.790 -19.414 -40.428  1.00  0.00    -0.207 F 
ENDBRANCH  35  36
ENDBRANCH  34  35
ENDBRANCH  32  34
ENDBRANCH  25  27
ENDBRANCH   8  25
TORSDOF 11
ENDMDL
MODEL 11
REMARK minimizedAffinity -8.56375313
REMARK minimizedRMSD -1
REMARK SMILES CS(=O)(=O)CCNCc1ccc(-c2ccc3ncnc(Nc4ccc(OCc5cccc(F)c5)c(Cl)c4)c3c2)o1
REMARK SMILES IDX 13 1 14 2 15 3 16 4 17 5 18 6 19 7 20 8 38 9 39 10 12 11
REMARK SMILES IDX 9 12 10 13 40 14 11 15 8 16 7 17 6 19 5 20 2 21 3 22 4 23
REMARK SMILES IDX 1 24 21 25 22 27 23 28 37 29 24 30 35 31 25 32 36 33 26 34
REMARK SMILES IDX 27 35 28 36 29 37 34 38 30 39 32 40 31 41 33 42
REMARK H PARENT 7 18 21 26
ROOT
ATOM      1  C   UNL     1       0.079 -16.088 -43.407  1.00  0.00     0.018 A 
ATOM      2  C   UNL     1      -1.051 -16.306 -44.199  1.00  0.00     0.014 A 
ATOM      3  C   UNL     1      -1.861 -17.431 -43.995  1.00  0.00     0.030 A 
ATOM      4  C   UNL     1      -1.578 -18.372 -43.015  1.00  0.00     0.076 A 
ATOM      5  N   UNL     1      -2.400 -19.415 -42.872  1.00  0.00    -0.236 NA
ATOM      6  C   UNL     1      -2.097 -20.289 -41.908  1.00  0.00     0.224 A 
ATOM      7  N   UNL     1      -1.047 -20.225 -41.084  1.00  0.00    -0.219 NA
ATOM      8  C   UNL     1      -0.214 -19.182 -41.246  1.00  0.00     0.141 A 
ATOM      9  C   UNL     1      -0.442 -18.185 -42.218  1.00  0.00     0.044 A 
ATOM     10  C   UNL     1       0.372 -17.035 -42.418  1.00  0.00     0.026 A 
ENDROOT
BRANCH   1  11
ATOM     11  C   UNL     1       0.926 -14.911 -43.590  1.00  0.00     0.134 A 
ATOM     12  C   UNL     1       1.284 -12.735 -43.551  1.00  0.00     0.118 A 
ATOM     13  C   UNL     1       2.470 -13.313 -43.952  1.00  0.00     0.047 A 
ATOM     14  O   UNL     1       0.341 -13.700 -43.334  1.00  0.00    -0.460 OA
ATOM     15  C   UNL     1       2.240 -14.709 -43.977  1.00  0.00     0.051 A 
BRANCH  12  16
ATOM     16  C   UNL     1       0.863 -11.327 -43.322  1.00  0.00     0.157 C 
BRANCH  16  17
ATOM     17  N   UNL     1       1.882 -10.409 -43.848  1.00  0.00    -0.309 NA
ATOM     18  H   UNL     1       2.454 -10.929 -44.523  1.00  0.00     0.123 HD
BRANCH  17  19
ATOM     19  C   UNL     1       1.279  -9.229 -44.473  1.00  0.00     0.097 C 
BRANCH  19  20
ATOM     20  C   UNL     1       2.347  -8.338 -45.097  1.00  0.00     0.152 C 
BRANCH  20  21
ATOM     21  S   UNL     1       3.848  -8.259 -44.132  1.00  0.00     0.148 S 
ATOM     22  O   UNL     1       3.501  -8.082 -42.733  1.00  0.00    -0.229 OA
ATOM     23  O   UNL     1       4.694  -9.363 -44.548  1.00  0.00    -0.229 OA
ATOM     24  C   UNL     1       4.643  -6.769 -44.691  1.00  0.00     0.158 C 
ENDBRANCH  20  21
ENDBRANCH  19  20
ENDBRANCH  17  19
ENDBRANCH  16  17
ENDBRANCH  12  16
ENDBRANCH   1  11
BRANCH   8  25
ATOM     25  N   UNL     1       0.952 -19.090 -40.436  1.00  0.00    -0.340 N 
ATOM     26  H   UNL     1       0.858 -18.275 -39.838  1.00  0.00     0.168 HD
BRANCH  25  27
ATOM     27  C   UNL     1       2.297 -19.312 -40.803  1.00  0.00     0.041 A 
ATOM     28  C   UNL     1       2.703 -20.411 -41.568  1.00  0.00     0.030 A 
ATOM     29  C   UNL     1       3.294 -18.486 -40.265  1.00  0.00     0.050 A 
ATOM     30  C   UNL     1       4.057 -20.654 -41.842  1.00  0.00     0.050 A 
ATOM     31  C   UNL     1       4.648 -18.724 -40.533  1.00  0.00     0.085 A 
ATOM     32  C   UNL     1       5.044 -19.812 -41.326  1.00  0.00     0.138 A 
ATOM     33  Cl  UNL     1       5.809 -17.638 -39.844  1.00  0.00    -0.080 Cl
BRANCH  32  34
ATOM     34  O   UNL     1       6.388 -19.968 -41.531  1.00  0.00    -0.487 OA
BRANCH  34  35
ATOM     35  C   UNL     1       6.822 -20.392 -42.821  1.00  0.00     0.265 C 
BRANCH  35  36
ATOM     36  C   UNL     1       6.823 -19.208 -43.762  1.00  0.00    -0.008 A 
ATOM     37  C   UNL     1       7.723 -18.145 -43.581  1.00  0.00     0.007 A 
ATOM     38  C   UNL     1       5.889 -19.129 -44.805  1.00  0.00     0.046 A 
ATOM     39  C   UNL     1       7.705 -17.036 -44.433  1.00  0.00     0.003 A 
ATOM     40  C   UNL     1       5.880 -18.021 -45.646  1.00  0.00     0.123 A 
ATOM     41  C   UNL     1       6.778 -16.976 -45.471  1.00  0.00     0.039 A 
ATOM     42  F   UNL     1       4.980 -17.958 -46.638  1.00  0.00    -0.207 F 
ENDBRANCH  35  36
ENDBRANCH  34  35
ENDBRANCH  32  34
ENDBRANCH  25  27
ENDBRANCH   8  25
TORSDOF 11
ENDMDL
MODEL 12
REMARK minimizedAffinity -8.54118538
REMARK minimizedRMSD -1
REMARK SMILES CS(=O)(=O)CCNCc1ccc(-c2ccc3ncnc(Nc4ccc(OCc5cccc(F)c5)c(Cl)c4)c3c2)o1
REMARK SMILES IDX 13 1 14 2 15 3 16 4 17 5 18 6 19 7 20 8 38 9 39 10 12 11
REMARK SMILES IDX 9 12 10 13 40 14 11 15 8 16 7 17 6 19 5 20 2 21 3 22 4 23
REMARK SMILES IDX 1 24 21 25 22 27 23 28 37 29 24 30 35 31 25 32 36 33 26 34
REMARK SMILES IDX 27 35 28 36 29 37 34 38 30 39 32 40 31 41 33 42
REMARK H PARENT 7 18 21 26
ROOT
ATOM      1  C   UNL     1       7.256 -12.099 -44.357  1.00  0.00     0.018 A 
ATOM      2  C   UNL     1       8.436 -12.846 -44.357  1.00  0.00     0.014 A 
ATOM      3  C   UNL     1       8.463 -14.139 -44.899  1.00  0.00     0.030 A 
ATOM      4  C   UNL     1       7.333 -14.730 -45.445  1.00  0.00     0.076 A 
ATOM      5  N   UNL     1       7.436 -15.962 -45.952  1.00  0.00    -0.236 NA
ATOM      6  C   UNL     1       6.327 -16.487 -46.480  1.00  0.00     0.224 A 
ATOM      7  N   UNL     1       5.127 -15.904 -46.539  1.00  0.00    -0.219 NA
ATOM      8  C   UNL     1       5.026 -14.672 -46.011  1.00  0.00     0.141 A 
ATOM      9  C   UNL     1       6.134 -14.007 -45.443  1.00  0.00     0.044 A 
ATOM     10  C   UNL     1       6.112 -12.690 -44.904  1.00  0.00     0.026 A 
ENDROOT
BRANCH   1  11
ATOM     11  C   UNL     1       7.211 -10.741 -43.815  1.00  0.00     0.134 A 
ATOM     12  C   UNL     1       6.981  -8.558 -44.027  1.00  0.00     0.118 A 
ATOM     13  C   UNL     1       7.188  -8.795 -42.684  1.00  0.00     0.047 A 
ATOM     14  O   UNL     1       6.999  -9.736 -44.719  1.00  0.00    -0.460 OA
ATOM     15  C   UNL     1       7.335 -10.196 -42.549  1.00  0.00     0.051 A 
BRANCH  12  16
ATOM     16  C   UNL     1       6.754  -7.322 -44.820  1.00  0.00     0.157 C 
BRANCH  16  17
ATOM     17  N   UNL     1       6.040  -7.650 -46.063  1.00  0.00    -0.309 NA
ATOM     18  H   UNL     1       6.166  -8.652 -46.242  1.00  0.00     0.123 HD
BRANCH  17  19
ATOM     19  C   UNL     1       4.619  -7.306 -45.980  1.00  0.00     0.097 C 
BRANCH  19  20
ATOM     20  C   UNL     1       3.758  -8.395 -46.608  1.00  0.00     0.152 C 
BRANCH  20  21
ATOM     21  S   UNL     1       3.173  -9.598 -45.423  1.00  0.00     0.148 S 
ATOM     22  O   UNL     1       3.265 -10.923 -46.012  1.00  0.00    -0.229 OA
ATOM     23  O   UNL     1       3.813  -9.309 -44.154  1.00  0.00    -0.229 OA
ATOM     24  C   UNL     1       1.448  -9.207 -45.227  1.00  0.00     0.158 C 
ENDBRANCH  20  21
ENDBRANCH  19  20
ENDBRANCH  17  19
ENDBRANCH  16  17
ENDBRANCH  12  16
ENDBRANCH   1  11
BRANCH   8  25
ATOM     25  N   UNL     1       3.760 -14.022 -45.993  1.00  0.00    -0.340 N 
ATOM     26  H   UNL     1       3.909 -13.044 -45.766  1.00  0.00     0.168 HD
BRANCH  25  27
ATOM     27  C   UNL     1       2.537 -14.496 -45.471  1.00  0.00     0.041 A 
ATOM     28  C   UNL     1       2.372 -14.849 -44.127  1.00  0.00     0.030 A 
ATOM     29  C   UNL     1       1.480 -14.765 -46.352  1.00  0.00     0.050 A 
ATOM     30  C   UNL     1       1.171 -15.400 -43.655  1.00  0.00     0.050 A 
ATOM     31  C   UNL     1       0.280 -15.317 -45.888  1.00  0.00     0.085 A 
ATOM     32  C   UNL     1       0.113 -15.641 -44.533  1.00  0.00     0.138 A 
ATOM     33  Cl  UNL     1      -0.980 -15.595 -47.046  1.00  0.00    -0.080 Cl
BRANCH  32  34
ATOM     34  O   UNL     1      -1.093 -16.180 -44.172  1.00  0.00    -0.487 OA
BRANCH  34  35
ATOM     35  C   UNL     1      -1.087 -17.427 -43.482  1.00  0.00     0.265 C 
BRANCH  35  36
ATOM     36  C   UNL     1      -2.468 -17.702 -42.932  1.00  0.00    -0.008 A 
ATOM     37  C   UNL     1      -2.670 -18.693 -41.955  1.00  0.00     0.007 A 
ATOM     38  C   UNL     1      -3.580 -17.006 -43.424  1.00  0.00     0.046 A 
ATOM     39  C   UNL     1      -3.951 -18.968 -41.468  1.00  0.00     0.003 A 
ATOM     40  C   UNL     1      -4.850 -17.289 -42.932  1.00  0.00     0.123 A 
ATOM     41  C   UNL     1      -5.046 -18.261 -41.959  1.00  0.00     0.039 A 
ATOM     42  F   UNL     1      -5.905 -16.616 -43.414  1.00  0.00    -0.207 F 
ENDBRANCH  35  36
ENDBRANCH  34  35
ENDBRANCH  32  34
ENDBRANCH  25  27
ENDBRANCH   8  25
TORSDOF 11
ENDMDL
MODEL 13
REMARK minimizedAffinity -8.53105164
REMARK minimizedRMSD -1
REMARK SMILES CS(=O)(=O)CCNCc1ccc(-c2ccc3ncnc(Nc4ccc(OCc5cccc(F)c5)c(Cl)c4)c3c2)o1
REMARK SMILES IDX 13 1 14 2 15 3 16 4 17 5 18 6 19 7 20 8 38 9 39 10 12 11
REMARK SMILES IDX 9 12 10 13 40 14 11 15 8 16 7 17 6 19 5 20 2 21 3 22 4 23
REMARK SMILES IDX 1 24 21 25 22 27 23 28 37 29 24 30 35 31 25 32 36 33 26 34
REMARK SMILES IDX 27 35 28 36 29 37 34 38 30 39 32 40 31 41 33 42
REMARK H PARENT 7 18 21 26
ROOT
ATOM      1  C   UNL     1       2.793  -8.078 -44.419  1.00  0.00     0.018 A 
ATOM      2  C   UNL     1       2.002  -6.931 -44.504  1.00  0.00     0.014 A 
ATOM      3  C   UNL     1       0.665  -7.013 -44.916  1.00  0.00     0.030 A 
ATOM      4  C   UNL     1       0.075  -8.220 -45.261  1.00  0.00     0.076 A 
ATOM      5  N   UNL     1      -1.207  -8.224 -45.636  1.00  0.00    -0.236 NA
ATOM      6  C   UNL     1      -1.737  -9.410 -45.946  1.00  0.00     0.224 A 
ATOM      7  N   UNL     1      -1.106 -10.587 -45.930  1.00  0.00    -0.219 NA
ATOM      8  C   UNL     1       0.190 -10.574 -45.569  1.00  0.00     0.141 A 
ATOM      9  C   UNL     1       0.852  -9.385 -45.200  1.00  0.00     0.044 A 
ATOM     10  C   UNL     1       2.206  -9.300 -44.769  1.00  0.00     0.026 A 
ENDROOT
BRANCH   1  11
ATOM     11  C   UNL     1       4.184  -8.017 -43.973  1.00  0.00     0.134 A 
ATOM     12  C   UNL     1       6.351  -8.278 -44.286  1.00  0.00     0.118 A 
ATOM     13  C   UNL     1       6.203  -7.803 -43.001  1.00  0.00     0.047 A 
ATOM     14  O   UNL     1       5.128  -8.415 -44.880  1.00  0.00    -0.460 OA
ATOM     15  C   UNL     1       4.812  -7.635 -42.800  1.00  0.00     0.051 A 
BRANCH  12  16
ATOM     16  C   UNL     1       7.535  -8.651 -45.105  1.00  0.00     0.157 C 
BRANCH  16  17
ATOM     17  N   UNL     1       8.184  -9.839 -44.532  1.00  0.00    -0.309 NA
ATOM     18  H   UNL     1       8.340  -9.661 -43.534  1.00  0.00     0.123 HD
BRANCH  17  19
ATOM     19  C   UNL     1       7.379 -11.047 -44.729  1.00  0.00     0.097 C 
BRANCH  19  20
ATOM     20  C   UNL     1       7.962 -12.223 -43.956  1.00  0.00     0.152 C 
BRANCH  20  21
ATOM     21  S   UNL     1       7.494 -12.232 -42.232  1.00  0.00     0.148 S 
ATOM     22  O   UNL     1       7.334 -10.861 -41.780  1.00  0.00    -0.229 OA
ATOM     23  O   UNL     1       6.415 -13.190 -42.077  1.00  0.00    -0.229 OA
ATOM     24  C   UNL     1       8.910 -12.919 -41.403  1.00  0.00     0.158 C 
ENDBRANCH  20  21
ENDBRANCH  19  20
ENDBRANCH  17  19
ENDBRANCH  16  17
ENDBRANCH  12  16
ENDBRANCH   1  11
BRANCH   8  25
ATOM     25  N   UNL     1       0.930 -11.789 -45.586  1.00  0.00    -0.340 N 
ATOM     26  H   UNL     1       1.429 -11.844 -46.468  1.00  0.00     0.168 HD
BRANCH  25  27
ATOM     27  C   UNL     1       0.533 -13.066 -45.134  1.00  0.00     0.041 A 
ATOM     28  C   UNL     1       0.454 -13.400 -43.777  1.00  0.00     0.030 A 
ATOM     29  C   UNL     1       0.350 -14.092 -46.071  1.00  0.00     0.050 A 
ATOM     30  C   UNL     1       0.143 -14.703 -43.359  1.00  0.00     0.050 A 
ATOM     31  C   UNL     1       0.041 -15.395 -45.661  1.00  0.00     0.085 A 
ATOM     32  C   UNL     1      -0.066 -15.714 -44.298  1.00  0.00     0.138 A 
ATOM     33  Cl  UNL     1      -0.191 -16.594 -46.891  1.00  0.00    -0.080 Cl
BRANCH  32  34
ATOM     34  O   UNL     1      -0.367 -17.014 -43.991  1.00  0.00    -0.487 OA
BRANCH  34  35
ATOM     35  C   UNL     1      -0.965 -17.279 -42.725  1.00  0.00     0.265 C 
BRANCH  35  36
ATOM     36  C   UNL     1      -0.289 -18.475 -42.093  1.00  0.00    -0.008 A 
ATOM     37  C   UNL     1       0.999 -18.367 -41.541  1.00  0.00     0.007 A 
ATOM     38  C   UNL     1      -0.918 -19.728 -42.093  1.00  0.00     0.046 A 
ATOM     39  C   UNL     1       1.636 -19.480 -40.983  1.00  0.00     0.003 A 
ATOM     40  C   UNL     1      -0.274 -20.828 -41.536  1.00  0.00     0.123 A 
ATOM     41  C   UNL     1       0.995 -20.715 -40.981  1.00  0.00     0.039 A 
ATOM     42  F   UNL     1      -0.887 -22.020 -41.544  1.00  0.00    -0.207 F 
ENDBRANCH  35  36
ENDBRANCH  34  35
ENDBRANCH  32  34
ENDBRANCH  25  27
ENDBRANCH   8  25
TORSDOF 11
ENDMDL
MODEL 14
REMARK minimizedAffinity -8.51823044
REMARK minimizedRMSD -1
REMARK SMILES CS(=O)(=O)CCNCc1ccc(-c2ccc3ncnc(Nc4ccc(OCc5cccc(F)c5)c(Cl)c4)c3c2)o1
REMARK SMILES IDX 13 1 14 2 15 3 16 4 17 5 18 6 19 7 20 8 38 9 39 10 12 11
REMARK SMILES IDX 9 12 10 13 40 14 11 15 8 16 7 17 6 19 5 20 2 21 3 22 4 23
REMARK SMILES IDX 1 24 21 25 22 27 23 28 37 29 24 30 35 31 25 32 36 33 26 34
REMARK SMILES IDX 27 35 28 36 29 37 34 38 30 39 32 40 31 41 33 42
REMARK H PARENT 7 18 21 26
ROOT
ATOM      1  C   UNL     1       5.749 -17.099 -44.760  1.00  0.00     0.018 A 
ATOM      2  C   UNL     1       6.693 -17.660 -45.622  1.00  0.00     0.014 A 
ATOM      3  C   UNL     1       7.173 -18.960 -45.409  1.00  0.00     0.030 A 
ATOM      4  C   UNL     1       6.743 -19.736 -44.343  1.00  0.00     0.076 A 
ATOM      5  N   UNL     1       7.236 -20.970 -44.208  1.00  0.00    -0.236 NA
ATOM      6  C   UNL     1       6.784 -21.687 -43.175  1.00  0.00     0.224 A 
ATOM      7  N   UNL     1       5.898 -21.284 -42.261  1.00  0.00    -0.219 NA
ATOM      8  C   UNL     1       5.419 -20.034 -42.392  1.00  0.00     0.141 A 
ATOM      9  C   UNL     1       5.807 -19.191 -43.454  1.00  0.00     0.044 A 
ATOM     10  C   UNL     1       5.312 -17.876 -43.680  1.00  0.00     0.026 A 
ENDROOT
BRANCH   1  11
ATOM     11  C   UNL     1       5.221 -15.753 -44.975  1.00  0.00     0.134 A 
ATOM     12  C   UNL     1       5.462 -13.573 -45.213  1.00  0.00     0.118 A 
ATOM     13  C   UNL     1       4.111 -13.826 -45.330  1.00  0.00     0.047 A 
ATOM     14  O   UNL     1       6.140 -14.739 -44.993  1.00  0.00    -0.460 OA
ATOM     15  C   UNL     1       3.957 -15.225 -45.177  1.00  0.00     0.051 A 
BRANCH  12  16
ATOM     16  C   UNL     1       6.275 -12.330 -45.278  1.00  0.00     0.157 C 
BRANCH  16  17
ATOM     17  N   UNL     1       6.169 -11.596 -44.010  1.00  0.00    -0.309 NA
ATOM     18  H   UNL     1       5.791 -12.240 -43.306  1.00  0.00     0.123 HD
BRANCH  17  19
ATOM     19  C   UNL     1       7.463 -11.056 -43.585  1.00  0.00     0.097 C 
BRANCH  19  20
ATOM     20  C   UNL     1       7.742 -11.396 -42.126  1.00  0.00     0.152 C 
BRANCH  20  21
ATOM     21  S   UNL     1       7.543 -13.133 -41.759  1.00  0.00     0.148 S 
ATOM     22  O   UNL     1       6.136 -13.478 -41.861  1.00  0.00    -0.229 OA
ATOM     23  O   UNL     1       8.538 -13.859 -42.527  1.00  0.00    -0.229 OA
ATOM     24  C   UNL     1       8.017 -13.271 -40.050  1.00  0.00     0.158 C 
ENDBRANCH  20  21
ENDBRANCH  19  20
ENDBRANCH  17  19
ENDBRANCH  16  17
ENDBRANCH  12  16
ENDBRANCH   1  11
BRANCH   8  25
ATOM     25  N   UNL     1       4.514 -19.529 -41.418  1.00  0.00    -0.340 N 
ATOM     26  H   UNL     1       4.760 -19.930 -40.518  1.00  0.00     0.168 HD
BRANCH  25  27
ATOM     27  C   UNL     1       3.120 -19.329 -41.532  1.00  0.00     0.041 A 
ATOM     28  C   UNL     1       2.519 -18.075 -41.375  1.00  0.00     0.030 A 
ATOM     29  C   UNL     1       2.282 -20.444 -41.662  1.00  0.00     0.050 A 
ATOM     30  C   UNL     1       1.125 -17.921 -41.406  1.00  0.00     0.050 A 
ATOM     31  C   UNL     1       0.889 -20.298 -41.691  1.00  0.00     0.085 A 
ATOM     32  C   UNL     1       0.295 -19.033 -41.563  1.00  0.00     0.138 A 
ATOM     33  Cl  UNL     1      -0.068 -21.731 -41.879  1.00  0.00    -0.080 Cl
BRANCH  32  34
ATOM     34  O   UNL     1      -1.072 -18.987 -41.600  1.00  0.00    -0.487 OA
BRANCH  34  35
ATOM     35  C   UNL     1      -1.693 -18.520 -42.795  1.00  0.00     0.265 C 
BRANCH  35  36
ATOM     36  C   UNL     1      -3.152 -18.232 -42.522  1.00  0.00    -0.008 A 
ATOM     37  C   UNL     1      -3.847 -17.265 -43.268  1.00  0.00     0.007 A 
ATOM     38  C   UNL     1      -3.823 -18.891 -41.483  1.00  0.00     0.046 A 
ATOM     39  C   UNL     1      -5.188 -16.977 -42.996  1.00  0.00     0.003 A 
ATOM     40  C   UNL     1      -5.157 -18.596 -41.220  1.00  0.00     0.123 A 
ATOM     41  C   UNL     1      -5.845 -17.647 -41.968  1.00  0.00     0.039 A 
ATOM     42  F   UNL     1      -5.787 -19.233 -40.223  1.00  0.00    -0.207 F 
ENDBRANCH  35  36
ENDBRANCH  34  35
ENDBRANCH  32  34
ENDBRANCH  25  27
ENDBRANCH   8  25
TORSDOF 11
ENDMDL
MODEL 15
REMARK minimizedAffinity -8.49424744
REMARK minimizedRMSD -1
REMARK SMILES CS(=O)(=O)CCNCc1ccc(-c2ccc3ncnc(Nc4ccc(OCc5cccc(F)c5)c(Cl)c4)c3c2)o1
REMARK SMILES IDX 13 1 14 2 15 3 16 4 17 5 18 6 19 7 20 8 38 9 39 10 12 11
REMARK SMILES IDX 9 12 10 13 40 14 11 15 8 16 7 17 6 19 5 20 2 21 3 22 4 23
REMARK SMILES IDX 1 24 21 25 22 27 23 28 37 29 24 30 35 31 25 32 36 33 26 34
REMARK SMILES IDX 27 35 28 36 29 37 34 38 30 39 32 40 31 41 33 42
REMARK H PARENT 7 18 21 26
ROOT
ATOM      1  C   UNL     1       6.150 -10.721 -44.976  1.00  0.00     0.018 A 
ATOM      2  C   UNL     1       7.405 -10.292 -44.539  1.00  0.00     0.014 A 
ATOM      3  C   UNL     1       7.744  -8.933 -44.560  1.00  0.00     0.030 A 
ATOM      4  C   UNL     1       6.862  -7.963 -45.016  1.00  0.00     0.076 A 
ATOM      5  N   UNL     1       7.250  -6.685 -44.998  1.00  0.00    -0.236 NA
ATOM      6  C   UNL     1       6.364  -5.784 -45.434  1.00  0.00     0.224 A 
ATOM      7  N   UNL     1       5.137  -6.041 -45.895  1.00  0.00    -0.219 NA
ATOM      8  C   UNL     1       4.760  -7.331 -45.927  1.00  0.00     0.141 A 
ATOM      9  C   UNL     1       5.602  -8.369 -45.474  1.00  0.00     0.044 A 
ATOM     10  C   UNL     1       5.256  -9.748 -45.440  1.00  0.00     0.026 A 
ENDROOT
BRANCH   1  11
ATOM     11  C   UNL     1       5.770 -12.132 -44.943  1.00  0.00     0.134 A 
ATOM     12  C   UNL     1       4.340 -13.764 -44.543  1.00  0.00     0.118 A 
ATOM     13  C   UNL     1       5.486 -14.365 -45.020  1.00  0.00     0.047 A 
ATOM     14  O   UNL     1       4.508 -12.409 -44.490  1.00  0.00    -0.460 OA
ATOM     15  C   UNL     1       6.403 -13.317 -45.277  1.00  0.00     0.051 A 
BRANCH  12  16
ATOM     16  C   UNL     1       3.023 -14.290 -44.098  1.00  0.00     0.157 C 
BRANCH  16  17
ATOM     17  N   UNL     1       2.235 -13.212 -43.485  1.00  0.00    -0.309 NA
ATOM     18  H   UNL     1       2.527 -12.327 -43.914  1.00  0.00     0.123 HD
BRANCH  17  19
ATOM     19  C   UNL     1       0.796 -13.426 -43.655  1.00  0.00     0.097 C 
BRANCH  19  20
ATOM     20  C   UNL     1       0.177 -12.322 -44.504  1.00  0.00     0.152 C 
BRANCH  20  21
ATOM     21  S   UNL     1       0.295 -12.636 -46.259  1.00  0.00     0.148 S 
ATOM     22  O   UNL     1      -0.807 -11.970 -46.932  1.00  0.00    -0.229 OA
ATOM     23  O   UNL     1       1.666 -12.378 -46.658  1.00  0.00    -0.229 OA
ATOM     24  C   UNL     1       0.042 -14.391 -46.402  1.00  0.00     0.158 C 
ENDBRANCH  20  21
ENDBRANCH  19  20
ENDBRANCH  17  19
ENDBRANCH  16  17
ENDBRANCH  12  16
ENDBRANCH   1  11
BRANCH   8  25
ATOM     25  N   UNL     1       3.486  -7.672 -46.460  1.00  0.00    -0.340 N 
ATOM     26  H   UNL     1       3.428  -7.303 -47.404  1.00  0.00     0.168 HD
BRANCH  25  27
ATOM     27  C   UNL     1       2.229  -7.647 -45.816  1.00  0.00     0.041 A 
ATOM     28  C   UNL     1       1.585  -8.805 -45.367  1.00  0.00     0.030 A 
ATOM     29  C   UNL     1       1.523  -6.438 -45.750  1.00  0.00     0.050 A 
ATOM     30  C   UNL     1       0.298  -8.760 -44.811  1.00  0.00     0.050 A 
ATOM     31  C   UNL     1       0.236  -6.386 -45.199  1.00  0.00     0.085 A 
ATOM     32  C   UNL     1      -0.391  -7.548 -44.723  1.00  0.00     0.138 A 
ATOM     33  Cl  UNL     1      -0.552  -4.844 -45.137  1.00  0.00    -0.080 Cl
BRANCH  32  34
ATOM     34  O   UNL     1      -1.649  -7.401 -44.204  1.00  0.00    -0.487 OA
BRANCH  34  35
ATOM     35  C   UNL     1      -2.757  -7.734 -45.037  1.00  0.00     0.265 C 
BRANCH  35  36
ATOM     36  C   UNL     1      -3.834  -8.386 -44.201  1.00  0.00    -0.008 A 
ATOM     37  C   UNL     1      -4.585  -7.635 -43.280  1.00  0.00     0.007 A 
ATOM     38  C   UNL     1      -4.068  -9.765 -44.294  1.00  0.00     0.046 A 
ATOM     39  C   UNL     1      -5.561  -8.244 -42.484  1.00  0.00     0.003 A 
ATOM     40  C   UNL     1      -5.041 -10.360 -43.497  1.00  0.00     0.123 A 
ATOM     41  C   UNL     1      -5.789  -9.613 -42.595  1.00  0.00     0.039 A 
ATOM     42  F   UNL     1      -5.253 -11.680 -43.595  1.00  0.00    -0.207 F 
ENDBRANCH  35  36
ENDBRANCH  34  35
ENDBRANCH  32  34
ENDBRANCH  25  27
ENDBRANCH   8  25
TORSDOF 11
ENDMDL
MODEL 16
REMARK minimizedAffinity -8.46695137
REMARK minimizedRMSD -1
REMARK SMILES CS(=O)(=O)CCNCc1ccc(-c2ccc3ncnc(Nc4ccc(OCc5cccc(F)c5)c(Cl)c4)c3c2)o1
REMARK SMILES IDX 13 1 14 2 15 3 16 4 17 5 18 6 19 7 20 8 38 9 39 10 12 11
REMARK SMILES IDX 9 12 10 13 40 14 11 15 8 16 7 17 6 19 5 20 2 21 3 22 4 23
REMARK SMILES IDX 1 24 21 25 22 27 23 28 37 29 24 30 35 31 25 32 36 33 26 34
REMARK SMILES IDX 27 35 28 36 29 37 34 38 30 39 32 40 31 41 33 42
REMARK H PARENT 7 18 21 26
ROOT
ATOM      1  C   UNL     1      -1.159  -9.924 -45.188  1.00  0.00     0.018 A 
ATOM      2  C   UNL     1      -2.270  -9.817 -44.349  1.00  0.00     0.014 A 
ATOM      3  C   UNL     1      -2.645  -8.576 -43.815  1.00  0.00     0.030 A 
ATOM      4  C   UNL     1      -1.935  -7.415 -44.086  1.00  0.00     0.076 A 
ATOM      5  N   UNL     1      -2.357  -6.267 -43.550  1.00  0.00    -0.236 NA
ATOM      6  C   UNL     1      -1.652  -5.172 -43.848  1.00  0.00     0.224 A 
ATOM      7  N   UNL     1      -0.563  -5.118 -44.620  1.00  0.00    -0.219 NA
ATOM      8  C   UNL     1      -0.134  -6.281 -45.141  1.00  0.00     0.141 A 
ATOM      9  C   UNL     1      -0.808  -7.499 -44.913  1.00  0.00     0.044 A 
ATOM     10  C   UNL     1      -0.437  -8.757 -45.464  1.00  0.00     0.026 A 
ENDROOT
BRANCH   1  11
ATOM     11  C   UNL     1      -0.763 -11.205 -45.771  1.00  0.00     0.134 A 
ATOM     12  C   UNL     1       0.354 -13.107 -45.738  1.00  0.00     0.118 A 
ATOM     13  C   UNL     1      -0.357 -13.099 -46.919  1.00  0.00     0.047 A 
ATOM     14  O   UNL     1       0.115 -11.958 -45.039  1.00  0.00    -0.460 OA
ATOM     15  C   UNL     1      -1.074 -11.878 -46.940  1.00  0.00     0.051 A 
BRANCH  12  16
ATOM     16  C   UNL     1       1.285 -14.085 -45.115  1.00  0.00     0.157 C 
BRANCH  16  17
ATOM     17  N   UNL     1       2.412 -13.375 -44.493  1.00  0.00    -0.309 NA
ATOM     18  H   UNL     1       2.808 -13.987 -43.772  1.00  0.00     0.123 HD
BRANCH  17  19
ATOM     19  C   UNL     1       3.429 -13.000 -45.479  1.00  0.00     0.097 C 
BRANCH  19  20
ATOM     20  C   UNL     1       4.584 -13.994 -45.475  1.00  0.00     0.152 C 
BRANCH  20  21
ATOM     21  S   UNL     1       4.896 -14.702 -43.865  1.00  0.00     0.148 S 
ATOM     22  O   UNL     1       4.850 -13.646 -42.869  1.00  0.00    -0.229 OA
ATOM     23  O   UNL     1       4.055 -15.877 -43.733  1.00  0.00    -0.229 OA
ATOM     24  C   UNL     1       6.574 -15.283 -43.967  1.00  0.00     0.158 C 
ENDBRANCH  20  21
ENDBRANCH  19  20
ENDBRANCH  17  19
ENDBRANCH  16  17
ENDBRANCH  12  16
ENDBRANCH   1  11
BRANCH   8  25
ATOM     25  N   UNL     1       1.053  -6.297 -45.926  1.00  0.00    -0.340 N 
ATOM     26  H   UNL     1       0.908  -6.927 -46.708  1.00  0.00     0.168 HD
BRANCH  25  27
ATOM     27  C   UNL     1       2.396  -6.314 -45.488  1.00  0.00     0.041 A 
ATOM     28  C   UNL     1       3.481  -6.196 -46.364  1.00  0.00     0.030 A 
ATOM     29  C   UNL     1       2.669  -6.607 -44.145  1.00  0.00     0.050 A 
ATOM     30  C   UNL     1       4.804  -6.305 -45.912  1.00  0.00     0.050 A 
ATOM     31  C   UNL     1       3.988  -6.720 -43.687  1.00  0.00     0.085 A 
ATOM     32  C   UNL     1       5.071  -6.570 -44.568  1.00  0.00     0.138 A 
ATOM     33  Cl  UNL     1       4.231  -7.061 -42.005  1.00  0.00    -0.080 Cl
BRANCH  32  34
ATOM     34  O   UNL     1       6.324  -6.701 -44.032  1.00  0.00    -0.487 OA
BRANCH  34  35
ATOM     35  C   UNL     1       7.274  -7.490 -44.743  1.00  0.00     0.265 C 
BRANCH  35  36
ATOM     36  C   UNL     1       7.338  -8.871 -44.130  1.00  0.00    -0.008 A 
ATOM     37  C   UNL     1       7.304  -9.042 -42.736  1.00  0.00     0.007 A 
ATOM     38  C   UNL     1       7.482 -10.002 -44.944  1.00  0.00     0.046 A 
ATOM     39  C   UNL     1       7.393 -10.317 -42.168  1.00  0.00     0.003 A 
ATOM     40  C   UNL     1       7.570 -11.266 -44.368  1.00  0.00     0.123 A 
ATOM     41  C   UNL     1       7.526 -11.433 -42.989  1.00  0.00     0.039 A 
ATOM     42  F   UNL     1       7.710 -12.339 -45.159  1.00  0.00    -0.207 F 
ENDBRANCH  35  36
ENDBRANCH  34  35
ENDBRANCH  32  34
ENDBRANCH  25  27
ENDBRANCH   8  25
TORSDOF 11
ENDMDL
MODEL 17
REMARK minimizedAffinity -8.44581127
REMARK minimizedRMSD -1
REMARK SMILES CS(=O)(=O)CCNCc1ccc(-c2ccc3ncnc(Nc4ccc(OCc5cccc(F)c5)c(Cl)c4)c3c2)o1
REMARK SMILES IDX 13 1 14 2 15 3 16 4 17 5 18 6 19 7 20 8 38 9 39 10 12 11
REMARK SMILES IDX 9 12 10 13 40 14 11 15 8 16 7 17 6 19 5 20 2 21 3 22 4 23
REMARK SMILES IDX 1 24 21 25 22 27 23 28 37 29 24 30 35 31 25 32 36 33 26 34
REMARK SMILES IDX 27 35 28 36 29 37 34 38 30 39 32 40 31 41 33 42
REMARK H PARENT 7 18 21 26
ROOT
ATOM      1  C   UNL     1       6.591 -11.910 -44.379  1.00  0.00     0.018 A 
ATOM      2  C   UNL     1       7.415 -12.835 -43.735  1.00  0.00     0.014 A 
ATOM      3  C   UNL     1       7.117 -14.204 -43.769  1.00  0.00     0.030 A 
ATOM      4  C   UNL     1       6.000 -14.696 -44.429  1.00  0.00     0.076 A 
ATOM      5  N   UNL     1       5.784 -16.014 -44.428  1.00  0.00    -0.236 NA
ATOM      6  C   UNL     1       4.705 -16.445 -45.087  1.00  0.00     0.224 A 
ATOM      7  N   UNL     1       3.818 -15.685 -45.735  1.00  0.00    -0.219 NA
ATOM      8  C   UNL     1       4.032 -14.358 -45.717  1.00  0.00     0.141 A 
ATOM      9  C   UNL     1       5.149 -13.787 -45.071  1.00  0.00     0.044 A 
ATOM     10  C   UNL     1       5.461 -12.399 -45.045  1.00  0.00     0.026 A 
ENDROOT
BRANCH   1  11
ATOM     11  C   UNL     1       6.895 -10.480 -44.372  1.00  0.00     0.134 A 
ATOM     12  C   UNL     1       6.499  -8.400 -43.755  1.00  0.00     0.118 A 
ATOM     13  C   UNL     1       7.624  -8.357 -44.551  1.00  0.00     0.047 A 
ATOM     14  O   UNL     1       6.049  -9.685 -43.646  1.00  0.00    -0.460 OA
ATOM     15  C   UNL     1       7.878  -9.693 -44.947  1.00  0.00     0.051 A 
BRANCH  12  16
ATOM     16  C   UNL     1       5.724  -7.359 -43.029  1.00  0.00     0.157 C 
BRANCH  16  17
ATOM     17  N   UNL     1       5.301  -6.308 -43.966  1.00  0.00    -0.309 NA
ATOM     18  H   UNL     1       6.138  -5.794 -44.260  1.00  0.00     0.123 HD
BRANCH  17  19
ATOM     19  C   UNL     1       4.593  -6.864 -45.122  1.00  0.00     0.097 C 
BRANCH  19  20
ATOM     20  C   UNL     1       3.089  -6.894 -44.877  1.00  0.00     0.152 C 
BRANCH  20  21
ATOM     21  S   UNL     1       2.408  -8.545 -44.895  1.00  0.00     0.148 S 
ATOM     22  O   UNL     1       2.550  -9.129 -43.572  1.00  0.00    -0.229 OA
ATOM     23  O   UNL     1       1.106  -8.475 -45.533  1.00  0.00    -0.229 OA
ATOM     24  C   UNL     1       3.473  -9.440 -46.003  1.00  0.00     0.158 C 
ENDBRANCH  20  21
ENDBRANCH  19  20
ENDBRANCH  17  19
ENDBRANCH  16  17
ENDBRANCH  12  16
ENDBRANCH   1  11
BRANCH   8  25
ATOM     25  N   UNL     1       3.092 -13.492 -46.342  1.00  0.00    -0.340 N 
ATOM     26  H   UNL     1       3.598 -12.874 -46.969  1.00  0.00     0.168 HD
BRANCH  25  27
ATOM     27  C   UNL     1       1.975 -12.846 -45.768  1.00  0.00     0.041 A 
ATOM     28  C   UNL     1       1.836 -12.654 -44.389  1.00  0.00     0.030 A 
ATOM     29  C   UNL     1       0.888 -12.511 -46.588  1.00  0.00     0.050 A 
ATOM     30  C   UNL     1       0.675 -12.089 -43.841  1.00  0.00     0.050 A 
ATOM     31  C   UNL     1      -0.275 -11.949 -46.047  1.00  0.00     0.085 A 
ATOM     32  C   UNL     1      -0.394 -11.732 -44.665  1.00  0.00     0.138 A 
ATOM     33  Cl  UNL     1      -1.559 -11.546 -47.139  1.00  0.00    -0.080 Cl
BRANCH  32  34
ATOM     34  O   UNL     1      -1.568 -11.182 -44.226  1.00  0.00    -0.487 OA
BRANCH  34  35
ATOM     35  C   UNL     1      -1.604  -9.774 -44.006  1.00  0.00     0.265 C 
BRANCH  35  36
ATOM     36  C   UNL     1      -3.042  -9.306 -43.994  1.00  0.00    -0.008 A 
ATOM     37  C   UNL     1      -3.928  -9.726 -42.988  1.00  0.00     0.007 A 
ATOM     38  C   UNL     1      -3.529  -8.482 -45.019  1.00  0.00     0.046 A 
ATOM     39  C   UNL     1      -5.265  -9.318 -42.994  1.00  0.00     0.003 A 
ATOM     40  C   UNL     1      -4.861  -8.082 -45.014  1.00  0.00     0.123 A 
ATOM     41  C   UNL     1      -5.732  -8.491 -44.011  1.00  0.00     0.039 A 
ATOM     42  F   UNL     1      -5.314  -7.296 -46.001  1.00  0.00    -0.207 F 
ENDBRANCH  35  36
ENDBRANCH  34  35
ENDBRANCH  32  34
ENDBRANCH  25  27
ENDBRANCH   8  25
TORSDOF 11
ENDMDL
MODEL 18
REMARK minimizedAffinity -8.42391109
REMARK minimizedRMSD -1
REMARK SMILES CS(=O)(=O)CCNCc1ccc(-c2ccc3ncnc(Nc4ccc(OCc5cccc(F)c5)c(Cl)c4)c3c2)o1
REMARK SMILES IDX 13 1 14 2 15 3 16 4 17 5 18 6 19 7 20 8 38 9 39 10 12 11
REMARK SMILES IDX 9 12 10 13 40 14 11 15 8 16 7 17 6 19 5 20 2 21 3 22 4 23
REMARK SMILES IDX 1 24 21 25 22 27 23 28 37 29 24 30 35 31 25 32 36 33 26 34
REMARK SMILES IDX 27 35 28 36 29 37 34 38 30 39 32 40 31 41 33 42
REMARK H PARENT 7 18 21 26
ROOT
ATOM      1  C   UNL     1       7.058 -11.255 -44.955  1.00  0.00     0.018 A 
ATOM      2  C   UNL     1       7.459  -9.966 -44.595  1.00  0.00     0.014 A 
ATOM      3  C   UNL     1       6.532  -8.916 -44.548  1.00  0.00     0.030 A 
ATOM      4  C   UNL     1       5.193  -9.103 -44.860  1.00  0.00     0.076 A 
ATOM      5  N   UNL     1       4.365  -8.058 -44.784  1.00  0.00    -0.236 NA
ATOM      6  C   UNL     1       3.082  -8.287 -45.079  1.00  0.00     0.224 A 
ATOM      7  N   UNL     1       2.554  -9.455 -45.454  1.00  0.00    -0.219 NA
ATOM      8  C   UNL     1       3.396 -10.499 -45.545  1.00  0.00     0.141 A 
ATOM      9  C   UNL     1       4.769 -10.384 -45.239  1.00  0.00     0.044 A 
ATOM     10  C   UNL     1       5.709 -11.450 -45.274  1.00  0.00     0.026 A 
ENDROOT
BRANCH   1  11
ATOM     11  C   UNL     1       8.005 -12.368 -44.991  1.00  0.00     0.134 A 
ATOM     12  C   UNL     1       8.603 -14.408 -45.579  1.00  0.00     0.118 A 
ATOM     13  C   UNL     1       9.668 -13.881 -44.880  1.00  0.00     0.047 A 
ATOM     14  O   UNL     1       7.588 -13.496 -45.645  1.00  0.00    -0.460 OA
ATOM     15  C   UNL     1       9.285 -12.572 -44.503  1.00  0.00     0.051 A 
BRANCH  12  16
ATOM     16  C   UNL     1       8.365 -15.719 -46.239  1.00  0.00     0.157 C 
BRANCH  16  17
ATOM     17  N   UNL     1       7.013 -15.751 -46.815  1.00  0.00    -0.309 NA
ATOM     18  H   UNL     1       7.108 -15.822 -47.833  1.00  0.00     0.123 HD
BRANCH  17  19
ATOM     19  C   UNL     1       6.222 -16.863 -46.282  1.00  0.00     0.097 C 
BRANCH  19  20
ATOM     20  C   UNL     1       5.792 -16.588 -44.846  1.00  0.00     0.152 C 
BRANCH  20  21
ATOM     21  S   UNL     1       4.536 -15.323 -44.719  1.00  0.00     0.148 S 
ATOM     22  O   UNL     1       4.590 -14.485 -45.904  1.00  0.00    -0.229 OA
ATOM     23  O   UNL     1       3.298 -15.974 -44.332  1.00  0.00    -0.229 OA
ATOM     24  C   UNL     1       5.053 -14.339 -43.331  1.00  0.00     0.158 C 
ENDBRANCH  20  21
ENDBRANCH  19  20
ENDBRANCH  17  19
ENDBRANCH  16  17
ENDBRANCH  12  16
ENDBRANCH   1  11
BRANCH   8  25
ATOM     25  N   UNL     1       2.903 -11.756 -45.993  1.00  0.00    -0.340 N 
ATOM     26  H   UNL     1       2.777 -11.707 -46.999  1.00  0.00     0.168 HD
BRANCH  25  27
ATOM     27  C   UNL     1       1.931 -12.584 -45.389  1.00  0.00     0.041 A 
ATOM     28  C   UNL     1       1.754 -12.659 -44.004  1.00  0.00     0.030 A 
ATOM     29  C   UNL     1       1.209 -13.480 -46.190  1.00  0.00     0.050 A 
ATOM     30  C   UNL     1       0.842 -13.556 -43.428  1.00  0.00     0.050 A 
ATOM     31  C   UNL     1       0.299 -14.380 -45.622  1.00  0.00     0.085 A 
ATOM     32  C   UNL     1       0.106 -14.428 -44.232  1.00  0.00     0.138 A 
ATOM     33  Cl  UNL     1      -0.566 -15.435 -46.691  1.00  0.00    -0.080 Cl
BRANCH  32  34
ATOM     34  O   UNL     1      -0.801 -15.341 -43.767  1.00  0.00    -0.487 OA
BRANCH  34  35
ATOM     35  C   UNL     1      -0.301 -16.562 -43.227  1.00  0.00     0.265 C 
BRANCH  35  36
ATOM     36  C   UNL     1      -1.453 -17.511 -42.983  1.00  0.00    -0.008 A 
ATOM     37  C   UNL     1      -2.763 -17.165 -43.358  1.00  0.00     0.007 A 
ATOM     38  C   UNL     1      -1.240 -18.733 -42.331  1.00  0.00     0.046 A 
ATOM     39  C   UNL     1      -3.833 -18.029 -43.105  1.00  0.00     0.003 A 
ATOM     40  C   UNL     1      -2.312 -19.585 -42.084  1.00  0.00     0.123 A 
ATOM     41  C   UNL     1      -3.605 -19.245 -42.466  1.00  0.00     0.039 A 
ATOM     42  F   UNL     1      -2.094 -20.750 -41.459  1.00  0.00    -0.207 F 
ENDBRANCH  35  36
ENDBRANCH  34  35
ENDBRANCH  32  34
ENDBRANCH  25  27
ENDBRANCH   8  25
TORSDOF 11
ENDMDL
MODEL 19
REMARK minimizedAffinity -8.40904236
REMARK minimizedRMSD -1
REMARK SMILES CS(=O)(=O)CCNCc1ccc(-c2ccc3ncnc(Nc4ccc(OCc5cccc(F)c5)c(Cl)c4)c3c2)o1
REMARK SMILES IDX 13 1 14 2 15 3 16 4 17 5 18 6 19 7 20 8 38 9 39 10 12 11
REMARK SMILES IDX 9 12 10 13 40 14 11 15 8 16 7 17 6 19 5 20 2 21 3 22 4 23
REMARK SMILES IDX 1 24 21 25 22 27 23 28 37 29 24 30 35 31 25 32 36 33 26 34
REMARK SMILES IDX 27 35 28 36 29 37 34 38 30 39 32 40 31 41 33 42
REMARK H PARENT 7 18 21 26
ROOT
ATOM      1  C   UNL     1      -0.761 -10.125 -45.369  1.00  0.00     0.018 A 
ATOM      2  C   UNL     1      -1.881 -10.183 -44.537  1.00  0.00     0.014 A 
ATOM      3  C   UNL     1      -2.403  -9.019 -43.957  1.00  0.00     0.030 A 
ATOM      4  C   UNL     1      -1.834  -7.772 -44.172  1.00  0.00     0.076 A 
ATOM      5  N   UNL     1      -2.391  -6.705 -43.594  1.00  0.00    -0.236 NA
ATOM      6  C   UNL     1      -1.818  -5.523 -43.840  1.00  0.00     0.224 A 
ATOM      7  N   UNL     1      -0.739  -5.310 -44.597  1.00  0.00    -0.219 NA
ATOM      8  C   UNL     1      -0.173  -6.391 -45.162  1.00  0.00     0.141 A 
ATOM      9  C   UNL     1      -0.700  -7.688 -44.991  1.00  0.00     0.044 A 
ATOM     10  C   UNL     1      -0.180  -8.870 -45.588  1.00  0.00     0.026 A 
ENDROOT
BRANCH   1  11
ATOM     11  C   UNL     1      -0.213 -11.324 -46.000  1.00  0.00     0.134 A 
ATOM     12  C   UNL     1       1.368 -12.836 -46.283  1.00  0.00     0.118 A 
ATOM     13  C   UNL     1       0.342 -13.187 -47.135  1.00  0.00     0.047 A 
ATOM     14  O   UNL     1       1.038 -11.703 -45.594  1.00  0.00    -0.460 OA
ATOM     15  C   UNL     1      -0.672 -12.217 -46.953  1.00  0.00     0.051 A 
BRANCH  12  16
ATOM     16  C   UNL     1       2.698 -13.432 -45.989  1.00  0.00     0.157 C 
BRANCH  16  17
ATOM     17  N   UNL     1       2.533 -14.814 -45.518  1.00  0.00    -0.309 NA
ATOM     18  H   UNL     1       3.189 -15.405 -46.041  1.00  0.00     0.123 HD
BRANCH  17  19
ATOM     19  C   UNL     1       2.762 -14.927 -44.075  1.00  0.00     0.097 C 
BRANCH  19  20
ATOM     20  C   UNL     1       1.768 -15.891 -43.440  1.00  0.00     0.152 C 
BRANCH  20  21
ATOM     21  S   UNL     1       0.107 -15.704 -44.070  1.00  0.00     0.148 S 
ATOM     22  O   UNL     1      -0.327 -14.334 -43.857  1.00  0.00    -0.229 OA
ATOM     23  O   UNL     1       0.074 -16.289 -45.398  1.00  0.00    -0.229 OA
ATOM     24  C   UNL     1      -0.874 -16.756 -43.024  1.00  0.00     0.158 C 
ENDBRANCH  20  21
ENDBRANCH  19  20
ENDBRANCH  17  19
ENDBRANCH  16  17
ENDBRANCH  12  16
ENDBRANCH   1  11
BRANCH   8  25
ATOM     25  N   UNL     1       1.012  -6.234 -45.934  1.00  0.00    -0.340 N 
ATOM     26  H   UNL     1       0.895  -6.747 -46.802  1.00  0.00     0.168 HD
BRANCH  25  27
ATOM     27  C   UNL     1       2.355  -6.254 -45.496  1.00  0.00     0.041 A 
ATOM     28  C   UNL     1       3.439  -6.120 -46.371  1.00  0.00     0.030 A 
ATOM     29  C   UNL     1       2.629  -6.567 -44.158  1.00  0.00     0.050 A 
ATOM     30  C   UNL     1       4.763  -6.232 -45.921  1.00  0.00     0.050 A 
ATOM     31  C   UNL     1       3.949  -6.684 -43.702  1.00  0.00     0.085 A 
ATOM     32  C   UNL     1       5.031  -6.517 -44.580  1.00  0.00     0.138 A 
ATOM     33  Cl  UNL     1       4.193  -7.050 -42.026  1.00  0.00    -0.080 Cl
BRANCH  32  34
ATOM     34  O   UNL     1       6.284  -6.653 -44.047  1.00  0.00    -0.487 OA
BRANCH  34  35
ATOM     35  C   UNL     1       7.235  -7.434 -44.766  1.00  0.00     0.265 C 
BRANCH  35  36
ATOM     36  C   UNL     1       7.316  -8.814 -44.152  1.00  0.00    -0.008 A 
ATOM     37  C   UNL     1       7.262  -8.986 -42.758  1.00  0.00     0.007 A 
ATOM     38  C   UNL     1       7.498  -9.942 -44.963  1.00  0.00     0.046 A 
ATOM     39  C   UNL     1       7.368 -10.259 -42.189  1.00  0.00     0.003 A 
ATOM     40  C   UNL     1       7.603 -11.204 -44.385  1.00  0.00     0.123 A 
ATOM     41  C   UNL     1       7.538 -11.372 -43.007  1.00  0.00     0.039 A 
ATOM     42  F   UNL     1       7.778 -12.274 -45.173  1.00  0.00    -0.207 F 
ENDBRANCH  35  36
ENDBRANCH  34  35
ENDBRANCH  32  34
ENDBRANCH  25  27
ENDBRANCH   8  25
TORSDOF 11
ENDMDL
MODEL 20
REMARK minimizedAffinity -8.35090351
REMARK minimizedRMSD -1
REMARK SMILES CS(=O)(=O)CCNCc1ccc(-c2ccc3ncnc(Nc4ccc(OCc5cccc(F)c5)c(Cl)c4)c3c2)o1
REMARK SMILES IDX 13 1 14 2 15 3 16 4 17 5 18 6 19 7 20 8 38 9 39 10 12 11
REMARK SMILES IDX 9 12 10 13 40 14 11 15 8 16 7 17 6 19 5 20 2 21 3 22 4 23
REMARK SMILES IDX 1 24 21 25 22 27 23 28 37 29 24 30 35 31 25 32 36 33 26 34
REMARK SMILES IDX 27 35 28 36 29 37 34 38 30 39 32 40 31 41 33 42
REMARK H PARENT 7 18 21 26
ROOT
ATOM      1  C   UNL     1       3.404  -8.263 -44.300  1.00  0.00     0.018 A 
ATOM      2  C   UNL     1       2.746  -7.038 -44.174  1.00  0.00     0.014 A 
ATOM      3  C   UNL     1       1.394  -6.914 -44.519  1.00  0.00     0.030 A 
ATOM      4  C   UNL     1       0.657  -7.986 -45.003  1.00  0.00     0.076 A 
ATOM      5  N   UNL     1      -0.630  -7.796 -45.303  1.00  0.00    -0.236 NA
ATOM      6  C   UNL     1      -1.304  -8.859 -45.752  1.00  0.00     0.224 A 
ATOM      7  N   UNL     1      -0.811 -10.086 -45.940  1.00  0.00    -0.219 NA
ATOM      8  C   UNL     1       0.490 -10.265 -45.653  1.00  0.00     0.141 A 
ATOM      9  C   UNL     1       1.298  -9.223 -45.153  1.00  0.00     0.044 A 
ATOM     10  C   UNL     1       2.668  -9.349 -44.790  1.00  0.00     0.026 A 
ENDROOT
BRANCH   1  11
ATOM     11  C   UNL     1       4.809  -8.419 -43.927  1.00  0.00     0.134 A 
ATOM     12  C   UNL     1       6.789  -9.370 -44.120  1.00  0.00     0.118 A 
ATOM     13  C   UNL     1       6.919  -8.408 -43.141  1.00  0.00     0.047 A 
ATOM     14  O   UNL     1       5.510  -9.385 -44.597  1.00  0.00    -0.460 OA
ATOM     15  C   UNL     1       5.647  -7.797 -43.018  1.00  0.00     0.051 A 
BRANCH  12  16
ATOM     16  C   UNL     1       7.737 -10.346 -44.721  1.00  0.00     0.157 C 
BRANCH  16  17
ATOM     17  N   UNL     1       7.054 -11.626 -44.956  1.00  0.00    -0.309 NA
ATOM     18  H   UNL     1       6.779 -11.658 -45.944  1.00  0.00     0.123 HD
BRANCH  17  19
ATOM     19  C   UNL     1       7.904 -12.767 -44.610  1.00  0.00     0.097 C 
BRANCH  19  20
ATOM     20  C   UNL     1       8.456 -12.628 -43.197  1.00  0.00     0.152 C 
BRANCH  20  21
ATOM     21  S   UNL     1       7.213 -12.848 -41.933  1.00  0.00     0.148 S 
ATOM     22  O   UNL     1       7.166 -11.656 -41.104  1.00  0.00    -0.229 OA
ATOM     23  O   UNL     1       6.012 -13.342 -42.581  1.00  0.00    -0.229 OA
ATOM     24  C   UNL     1       7.841 -14.181 -40.937  1.00  0.00     0.158 C 
ENDBRANCH  20  21
ENDBRANCH  19  20
ENDBRANCH  17  19
ENDBRANCH  16  17
ENDBRANCH  12  16
ENDBRANCH   1  11
BRANCH   8  25
ATOM     25  N   UNL     1       1.086 -11.536 -45.886  1.00  0.00    -0.340 N 
ATOM     26  H   UNL     1       1.379 -11.576 -46.858  1.00  0.00     0.168 HD
BRANCH  25  27
ATOM     27  C   UNL     1       0.669 -12.802 -45.419  1.00  0.00     0.041 A 
ATOM     28  C   UNL     1       0.652 -13.141 -44.062  1.00  0.00     0.030 A 
ATOM     29  C   UNL     1       0.398 -13.814 -46.349  1.00  0.00     0.050 A 
ATOM     30  C   UNL     1       0.318 -14.434 -43.633  1.00  0.00     0.050 A 
ATOM     31  C   UNL     1       0.066 -15.108 -45.928  1.00  0.00     0.085 A 
ATOM     32  C   UNL     1       0.022 -15.432 -44.563  1.00  0.00     0.138 A 
ATOM     33  Cl  UNL     1      -0.275 -16.291 -47.148  1.00  0.00    -0.080 Cl
BRANCH  32  34
ATOM     34  O   UNL     1      -0.308 -16.722 -44.245  1.00  0.00    -0.487 OA
BRANCH  34  35
ATOM     35  C   UNL     1      -0.472 -17.048 -42.868  1.00  0.00     0.265 C 
BRANCH  35  36
ATOM     36  C   UNL     1      -1.828 -17.685 -42.662  1.00  0.00    -0.008 A 
ATOM     37  C   UNL     1      -1.952 -18.921 -42.005  1.00  0.00     0.007 A 
ATOM     38  C   UNL     1      -2.983 -17.074 -43.169  1.00  0.00     0.046 A 
ATOM     39  C   UNL     1      -3.202 -19.525 -41.842  1.00  0.00     0.003 A 
ATOM     40  C   UNL     1      -4.223 -17.684 -43.001  1.00  0.00     0.123 A 
ATOM     41  C   UNL     1      -4.343 -18.901 -42.342  1.00  0.00     0.039 A 
ATOM     42  F   UNL     1      -5.319 -17.089 -43.493  1.00  0.00    -0.207 F 
ENDBRANCH  35  36
ENDBRANCH  34  35
ENDBRANCH  32  34
ENDBRANCH  25  27
ENDBRANCH   8  25
TORSDOF 11
ENDMDL
