MODEL 1
REMARK minimizedAffinity -8.17768669
REMARK minimizedRMSD -1
REMARK SMILES CC1(C)CNc2cc(NC(=O)c3cccnc3NCc3ccncc3)ccc21
REMARK SMILES IDX 12 1 13 2 14 3 15 4 16 5 17 6 10 7 9 8 11 9 8 11 2 12 4 13
REMARK SMILES IDX 28 14 5 15 27 16 6 17 26 18 7 19 1 20 3 21 18 23 19 25 20 26
REMARK SMILES IDX 21 27 25 28 22 29 24 30 23 31
REMARK H PARENT 9 10 5 22 18 24
ROOT
ATOM      1  C   UNL     1       1.742 -12.062 -44.257  1.00  0.00     0.082 A 
ATOM      2  C   UNL     1       2.688 -11.509 -45.131  1.00  0.00     0.019 A 
ATOM      3  C   UNL     1       3.723 -12.307 -45.598  1.00  0.00     0.021 A 
ATOM      4  C   UNL     1       3.773 -13.618 -45.166  1.00  0.00     0.113 A 
ATOM      5  N   UNL     1       2.879 -14.169 -44.314  1.00  0.00    -0.239 NA
ATOM      6  C   UNL     1       1.866 -13.399 -43.848  1.00  0.00     0.139 A 
ENDROOT
BRANCH   1   7
ATOM      7  C   UNL     1       0.655 -11.211 -43.718  1.00  0.00     0.259 C 
ATOM      8  N   UNL     1      -0.276 -10.810 -44.657  1.00  0.00    -0.322 N 
ATOM      9  O   UNL     1       0.679 -10.941 -42.522  1.00  0.00    -0.269 OA
ATOM     10  H   UNL     1      -0.182 -11.197 -45.588  1.00  0.00     0.170 HD
BRANCH   8  11
ATOM     11  C   UNL     1      -1.398  -9.978 -44.452  1.00  0.00     0.043 A 
ATOM     12  C   UNL     1      -4.806  -7.487 -43.806  1.00  0.00     0.009 C 
ATOM     13  C   UNL     1      -3.930  -6.217 -43.598  1.00  0.00     0.124 C 
ATOM     14  C   UNL     1      -3.729  -8.488 -44.123  1.00  0.00    -0.017 A 
ATOM     15  N   UNL     1      -2.582  -6.661 -43.202  1.00  0.00    -0.384 N 
ATOM     16  C   UNL     1      -3.831  -9.768 -44.639  1.00  0.00     0.008 A 
ATOM     17  C   UNL     1      -2.487  -7.948 -43.788  1.00  0.00     0.040 A 
ATOM     18  C   UNL     1      -2.657 -10.508 -44.808  1.00  0.00     0.026 A 
ATOM     19  C   UNL     1      -1.321  -8.686 -43.922  1.00  0.00     0.052 A 
ATOM     20  C   UNL     1      -5.540  -7.873 -42.516  1.00  0.00     0.018 C 
ATOM     21  C   UNL     1      -5.801  -7.291 -44.951  1.00  0.00     0.018 C 
ATOM     22  H   UNL     1      -1.819  -6.060 -43.505  1.00  0.00     0.160 HD
ENDBRANCH   8  11
ENDBRANCH   1   7
BRANCH   6  23
ATOM     23  N   UNL     1       0.883 -13.975 -43.026  1.00  0.00    -0.365 N 
ATOM     24  H   UNL     1       1.343 -14.363 -42.198  1.00  0.00     0.162 HD
BRANCH  23  25
ATOM     25  C   UNL     1      -0.033 -14.918 -43.645  1.00  0.00     0.150 C 
BRANCH  25  26
ATOM     26  C   UNL     1       0.024 -16.257 -42.952  1.00  0.00    -0.026 A 
ATOM     27  C   UNL     1       1.153 -16.644 -42.228  1.00  0.00     0.025 A 
ATOM     28  C   UNL     1      -1.051 -17.148 -43.028  1.00  0.00     0.025 A 
ATOM     29  C   UNL     1       1.157 -17.885 -41.611  1.00  0.00     0.111 A 
ATOM     30  C   UNL     1      -0.953 -18.367 -42.375  1.00  0.00     0.111 A 
ATOM     31  N   UNL     1       0.125 -18.755 -41.659  1.00  0.00    -0.265 NA
ENDBRANCH  25  26
ENDBRANCH  23  25
ENDBRANCH   6  23
TORSDOF 5
ENDMDL
MODEL 2
REMARK minimizedAffinity -8.11247921
REMARK minimizedRMSD -1
REMARK SMILES CC1(C)CNc2cc(NC(=O)c3cccnc3NCc3ccncc3)ccc21
REMARK SMILES IDX 12 1 13 2 14 3 15 4 16 5 17 6 10 7 9 8 11 9 8 11 2 12 4 13
REMARK SMILES IDX 28 14 5 15 27 16 6 17 26 18 7 19 1 20 3 21 18 23 19 25 20 26
REMARK SMILES IDX 21 27 25 28 22 29 24 30 23 31
REMARK H PARENT 9 10 5 22 18 24
ROOT
ATOM      1  C   UNL     1       1.255 -13.367 -44.590  1.00  0.00     0.082 A 
ATOM      2  C   UNL     1       2.577 -12.958 -44.811  1.00  0.00     0.019 A 
ATOM      3  C   UNL     1       3.616 -13.787 -44.414  1.00  0.00     0.021 A 
ATOM      4  C   UNL     1       3.290 -14.984 -43.805  1.00  0.00     0.113 A 
ATOM      5  N   UNL     1       2.023 -15.394 -43.571  1.00  0.00    -0.239 NA
ATOM      6  C   UNL     1       1.000 -14.591 -43.951  1.00  0.00     0.139 A 
ENDROOT
BRANCH   1   7
ATOM      7  C   UNL     1       0.136 -12.474 -44.972  1.00  0.00     0.259 C 
ATOM      8  N   UNL     1       0.135 -11.251 -44.327  1.00  0.00    -0.322 N 
ATOM      9  O   UNL     1      -0.670 -12.886 -45.799  1.00  0.00    -0.269 OA
ATOM     10  H   UNL     1       0.928 -11.048 -43.732  1.00  0.00     0.170 HD
BRANCH   8  11
ATOM     11  C   UNL     1      -0.811 -10.212 -44.460  1.00  0.00     0.043 A 
ATOM     12  C   UNL     1      -3.690  -7.087 -44.895  1.00  0.00     0.009 C 
ATOM     13  C   UNL     1      -4.000  -7.061 -43.370  1.00  0.00     0.124 C 
ATOM     14  C   UNL     1      -2.604  -8.128 -44.914  1.00  0.00    -0.017 A 
ATOM     15  N   UNL     1      -3.610  -8.366 -42.809  1.00  0.00    -0.384 N 
ATOM     16  C   UNL     1      -1.722  -8.472 -45.924  1.00  0.00     0.008 A 
ATOM     17  C   UNL     1      -2.588  -8.798 -43.691  1.00  0.00     0.040 A 
ATOM     18  C   UNL     1      -0.820  -9.514 -45.687  1.00  0.00     0.026 A 
ATOM     19  C   UNL     1      -1.719  -9.853 -43.459  1.00  0.00     0.052 A 
ATOM     20  C   UNL     1      -4.906  -7.560 -45.701  1.00  0.00     0.018 C 
ATOM     21  C   UNL     1      -3.220  -5.718 -45.388  1.00  0.00     0.018 C 
ATOM     22  H   UNL     1      -3.283  -8.347 -41.846  1.00  0.00     0.160 HD
ENDBRANCH   8  11
ENDBRANCH   1   7
BRANCH   6  23
ATOM     23  N   UNL     1      -0.323 -15.034 -43.788  1.00  0.00    -0.365 N 
ATOM     24  H   UNL     1      -0.538 -15.044 -42.787  1.00  0.00     0.162 HD
BRANCH  23  25
ATOM     25  C   UNL     1      -0.695 -16.274 -44.447  1.00  0.00     0.150 C 
BRANCH  25  26
ATOM     26  C   UNL     1      -1.495 -17.157 -43.522  1.00  0.00    -0.026 A 
ATOM     27  C   UNL     1      -0.863 -18.064 -42.669  1.00  0.00     0.025 A 
ATOM     28  C   UNL     1      -2.893 -17.095 -43.504  1.00  0.00     0.025 A 
ATOM     29  C   UNL     1      -1.643 -18.853 -41.838  1.00  0.00     0.111 A 
ATOM     30  C   UNL     1      -3.585 -17.926 -42.637  1.00  0.00     0.111 A 
ATOM     31  N   UNL     1      -2.992 -18.800 -41.795  1.00  0.00    -0.265 NA
ENDBRANCH  25  26
ENDBRANCH  23  25
ENDBRANCH   6  23
TORSDOF 5
ENDMDL
MODEL 3
REMARK minimizedAffinity -8.1113081
REMARK minimizedRMSD -1
REMARK SMILES CC1(C)CNc2cc(NC(=O)c3cccnc3NCc3ccncc3)ccc21
REMARK SMILES IDX 12 1 13 2 14 3 15 4 16 5 17 6 10 7 9 8 11 9 8 11 2 12 4 13
REMARK SMILES IDX 28 14 5 15 27 16 6 17 26 18 7 19 1 20 3 21 18 23 19 25 20 26
REMARK SMILES IDX 21 27 25 28 22 29 24 30 23 31
REMARK H PARENT 9 10 5 22 18 24
ROOT
ATOM      1  C   UNL     1       1.681 -11.967 -44.387  1.00  0.00     0.082 A 
ATOM      2  C   UNL     1       1.366 -13.255 -43.932  1.00  0.00     0.019 A 
ATOM      3  C   UNL     1       2.187 -14.315 -44.289  1.00  0.00     0.021 A 
ATOM      4  C   UNL     1       3.280 -14.045 -45.090  1.00  0.00     0.113 A 
ATOM      5  N   UNL     1       3.596 -12.813 -45.549  1.00  0.00    -0.239 NA
ATOM      6  C   UNL     1       2.800 -11.771 -45.211  1.00  0.00     0.139 A 
ENDROOT
BRANCH   1   7
ATOM      7  C   UNL     1       0.791 -10.831 -44.048  1.00  0.00     0.259 C 
ATOM      8  N   UNL     1      -0.382 -10.787 -44.778  1.00  0.00    -0.322 N 
ATOM      9  O   UNL     1       1.164 -10.051 -43.178  1.00  0.00    -0.269 OA
ATOM     10  H   UNL     1      -0.562 -11.563 -45.401  1.00  0.00     0.170 HD
BRANCH   8  11
ATOM     11  C   UNL     1      -1.404  -9.815 -44.701  1.00  0.00     0.043 A 
ATOM     12  C   UNL     1      -4.508  -6.889 -44.501  1.00  0.00     0.009 C 
ATOM     13  C   UNL     1      -4.725  -7.118 -42.976  1.00  0.00     0.124 C 
ATOM     14  C   UNL     1      -3.358  -7.829 -44.735  1.00  0.00    -0.017 A 
ATOM     15  N   UNL     1      -4.215  -8.459 -42.645  1.00  0.00    -0.384 N 
ATOM     16  C   UNL     1      -2.518  -7.948 -45.829  1.00  0.00     0.008 A 
ATOM     17  C   UNL     1      -3.222  -8.673 -43.634  1.00  0.00     0.040 A 
ATOM     18  C   UNL     1      -1.535  -8.942 -45.802  1.00  0.00     0.026 A 
ATOM     19  C   UNL     1      -2.271  -9.682 -43.612  1.00  0.00     0.052 A 
ATOM     20  C   UNL     1      -5.737  -7.327 -45.308  1.00  0.00     0.018 C 
ATOM     21  C   UNL     1      -4.164  -5.429 -44.798  1.00  0.00     0.018 C 
ATOM     22  H   UNL     1      -3.831  -8.561 -41.709  1.00  0.00     0.160 HD
ENDBRANCH   8  11
ENDBRANCH   1   7
BRANCH   6  23
ATOM     23  N   UNL     1       3.155 -10.472 -45.612  1.00  0.00    -0.365 N 
ATOM     24  H   UNL     1       2.681 -10.267 -46.496  1.00  0.00     0.162 HD
BRANCH  23  25
ATOM     25  C   UNL     1       4.573 -10.154 -45.657  1.00  0.00     0.150 C 
BRANCH  25  26
ATOM     26  C   UNL     1       4.919  -9.095 -44.640  1.00  0.00    -0.026 A 
ATOM     27  C   UNL     1       3.950  -8.205 -44.171  1.00  0.00     0.025 A 
ATOM     28  C   UNL     1       6.223  -8.970 -44.151  1.00  0.00     0.025 A 
ATOM     29  C   UNL     1       4.319  -7.249 -43.237  1.00  0.00     0.111 A 
ATOM     30  C   UNL     1       6.493  -7.981 -43.219  1.00  0.00     0.111 A 
ATOM     31  N   UNL     1       5.568  -7.120 -42.742  1.00  0.00    -0.265 NA
ENDBRANCH  25  26
ENDBRANCH  23  25
ENDBRANCH   6  23
TORSDOF 5
ENDMDL
MODEL 4
REMARK minimizedAffinity -8.04105186
REMARK minimizedRMSD -1
REMARK SMILES CC1(C)CNc2cc(NC(=O)c3cccnc3NCc3ccncc3)ccc21
REMARK SMILES IDX 12 1 13 2 14 3 15 4 16 5 17 6 10 7 9 8 11 9 8 11 2 12 4 13
REMARK SMILES IDX 28 14 5 15 27 16 6 17 26 18 7 19 1 20 3 21 18 23 19 25 20 26
REMARK SMILES IDX 21 27 25 28 22 29 24 30 23 31
REMARK H PARENT 9 10 5 22 18 24
ROOT
ATOM      1  C   UNL     1      -0.592 -20.485 -41.359  1.00  0.00     0.082 A 
ATOM      2  C   UNL     1      -0.816 -21.857 -41.181  1.00  0.00     0.019 A 
ATOM      3  C   UNL     1      -2.105 -22.353 -41.312  1.00  0.00     0.021 A 
ATOM      4  C   UNL     1      -3.115 -21.457 -41.608  1.00  0.00     0.113 A 
ATOM      5  N   UNL     1      -2.923 -20.129 -41.772  1.00  0.00    -0.239 NA
ATOM      6  C   UNL     1      -1.670 -19.632 -41.642  1.00  0.00     0.139 A 
ENDROOT
BRANCH   1   7
ATOM      7  C   UNL     1       0.773 -19.935 -41.182  1.00  0.00     0.259 C 
ATOM      8  N   UNL     1       1.764 -20.644 -41.834  1.00  0.00    -0.322 N 
ATOM      9  O   UNL     1       0.900 -18.931 -40.489  1.00  0.00    -0.269 OA
ATOM     10  H   UNL     1       1.465 -21.405 -42.430  1.00  0.00     0.170 HD
BRANCH   8  11
ATOM     11  C   UNL     1       3.152 -20.382 -41.826  1.00  0.00     0.043 A 
ATOM     12  C   UNL     1       7.345 -19.576 -41.838  1.00  0.00     0.009 C 
ATOM     13  C   UNL     1       7.317 -19.022 -40.383  1.00  0.00     0.124 C 
ATOM     14  C   UNL     1       5.905 -19.984 -41.980  1.00  0.00    -0.017 A 
ATOM     15  N   UNL     1       5.938 -18.595 -40.091  1.00  0.00    -0.384 N 
ATOM     16  C   UNL     1       5.295 -20.763 -42.949  1.00  0.00     0.008 A 
ATOM     17  C   UNL     1       5.163 -19.423 -40.941  1.00  0.00     0.040 A 
ATOM     18  C   UNL     1       3.914 -20.964 -42.861  1.00  0.00     0.026 A 
ATOM     19  C   UNL     1       3.789 -19.591 -40.865  1.00  0.00     0.052 A 
ATOM     20  C   UNL     1       7.696 -18.473 -42.845  1.00  0.00     0.018 C 
ATOM     21  C   UNL     1       8.320 -20.748 -41.965  1.00  0.00     0.018 C 
ATOM     22  H   UNL     1       5.649 -18.690 -39.120  1.00  0.00     0.160 HD
ENDBRANCH   8  11
ENDBRANCH   1   7
BRANCH   6  23
ATOM     23  N   UNL     1      -1.439 -18.268 -41.888  1.00  0.00    -0.365 N 
ATOM     24  H   UNL     1      -1.844 -17.729 -41.117  1.00  0.00     0.162 HD
BRANCH  23  25
ATOM     25  C   UNL     1      -1.827 -17.751 -43.189  1.00  0.00     0.150 C 
BRANCH  25  26
ATOM     26  C   UNL     1      -0.769 -16.827 -43.739  1.00  0.00    -0.026 A 
ATOM     27  C   UNL     1       0.239 -16.319 -42.916  1.00  0.00     0.025 A 
ATOM     28  C   UNL     1      -0.777 -16.448 -45.085  1.00  0.00     0.025 A 
ATOM     29  C   UNL     1       1.188 -15.473 -43.468  1.00  0.00     0.111 A 
ATOM     30  C   UNL     1       0.216 -15.597 -45.544  1.00  0.00     0.111 A 
ATOM     31  N   UNL     1       1.206 -15.105 -44.767  1.00  0.00    -0.265 NA
ENDBRANCH  25  26
ENDBRANCH  23  25
ENDBRANCH   6  23
TORSDOF 5
ENDMDL
MODEL 5
REMARK minimizedAffinity -8.0200119
REMARK minimizedRMSD -1
REMARK SMILES CC1(C)CNc2cc(NC(=O)c3cccnc3NCc3ccncc3)ccc21
REMARK SMILES IDX 12 1 13 2 14 3 15 4 16 5 17 6 10 7 9 8 11 9 8 11 2 12 4 13
REMARK SMILES IDX 28 14 5 15 27 16 6 17 26 18 7 19 1 20 3 21 18 23 19 25 20 26
REMARK SMILES IDX 21 27 25 28 22 29 24 30 23 31
REMARK H PARENT 9 10 5 22 18 24
ROOT
ATOM      1  C   UNL     1       1.347 -12.031 -44.394  1.00  0.00     0.082 A 
ATOM      2  C   UNL     1       1.079 -13.378 -44.110  1.00  0.00     0.019 A 
ATOM      3  C   UNL     1       1.921 -14.355 -44.620  1.00  0.00     0.021 A 
ATOM      4  C   UNL     1       2.988 -13.948 -45.397  1.00  0.00     0.113 A 
ATOM      5  N   UNL     1       3.258 -12.656 -45.693  1.00  0.00    -0.239 NA
ATOM      6  C   UNL     1       2.441 -11.693 -45.205  1.00  0.00     0.139 A 
ENDROOT
BRANCH   1   7
ATOM      7  C   UNL     1       0.433 -10.979 -43.890  1.00  0.00     0.259 C 
ATOM      8  N   UNL     1      -0.714 -10.809 -44.643  1.00  0.00    -0.322 N 
ATOM      9  O   UNL     1       0.767 -10.365 -42.882  1.00  0.00    -0.269 OA
ATOM     10  H   UNL     1      -0.863 -11.462 -45.401  1.00  0.00     0.170 HD
BRANCH   8  11
ATOM     11  C   UNL     1      -1.748  -9.871 -44.431  1.00  0.00     0.043 A 
ATOM     12  C   UNL     1      -4.891  -7.059 -43.763  1.00  0.00     0.009 C 
ATOM     13  C   UNL     1      -3.906  -5.853 -43.743  1.00  0.00     0.124 C 
ATOM     14  C   UNL     1      -3.923  -8.169 -44.066  1.00  0.00    -0.017 A 
ATOM     15  N   UNL     1      -2.568  -6.370 -43.412  1.00  0.00    -0.384 N 
ATOM     16  C   UNL     1      -4.165  -9.477 -44.450  1.00  0.00     0.008 A 
ATOM     17  C   UNL     1      -2.620  -7.707 -43.880  1.00  0.00     0.040 A 
ATOM     18  C   UNL     1      -3.068 -10.324 -44.639  1.00  0.00     0.026 A 
ATOM     19  C   UNL     1      -1.529  -8.549 -44.034  1.00  0.00     0.052 A 
ATOM     20  C   UNL     1      -5.541  -7.267 -42.390  1.00  0.00     0.018 C 
ATOM     21  C   UNL     1      -5.961  -6.881 -44.842  1.00  0.00     0.018 C 
ATOM     22  H   UNL     1      -1.789  -5.865 -43.828  1.00  0.00     0.160 HD
ENDBRANCH   8  11
ENDBRANCH   1   7
BRANCH   6  23
ATOM     23  N   UNL     1       2.751 -10.342 -45.436  1.00  0.00    -0.365 N 
ATOM     24  H   UNL     1       2.144  -9.996 -46.184  1.00  0.00     0.162 HD
BRANCH  23  25
ATOM     25  C   UNL     1       4.148 -10.009 -45.657  1.00  0.00     0.150 C 
BRANCH  25  26
ATOM     26  C   UNL     1       4.620  -8.980 -44.660  1.00  0.00    -0.026 A 
ATOM     27  C   UNL     1       5.979  -8.820 -44.381  1.00  0.00     0.025 A 
ATOM     28  C   UNL     1       3.705  -8.168 -43.981  1.00  0.00     0.025 A 
ATOM     29  C   UNL     1       6.362  -7.861 -43.456  1.00  0.00     0.111 A 
ATOM     30  C   UNL     1       4.186  -7.237 -43.074  1.00  0.00     0.111 A 
ATOM     31  N   UNL     1       5.497  -7.058 -42.800  1.00  0.00    -0.265 NA
ENDBRANCH  25  26
ENDBRANCH  23  25
ENDBRANCH   6  23
TORSDOF 5
ENDMDL
MODEL 6
REMARK minimizedAffinity -7.79297256
REMARK minimizedRMSD -1
REMARK SMILES CC1(C)CNc2cc(NC(=O)c3cccnc3NCc3ccncc3)ccc21
REMARK SMILES IDX 12 1 13 2 14 3 15 4 16 5 17 6 10 7 9 8 11 9 8 11 2 12 4 13
REMARK SMILES IDX 28 14 5 15 27 16 6 17 26 18 7 19 1 20 3 21 18 23 19 25 20 26
REMARK SMILES IDX 21 27 25 28 22 29 24 30 23 31
REMARK H PARENT 9 10 5 22 18 24
ROOT
ATOM      1  C   UNL     1       2.917 -15.440 -43.975  1.00  0.00     0.082 A 
ATOM      2  C   UNL     1       4.003 -15.190 -44.825  1.00  0.00     0.019 A 
ATOM      3  C   UNL     1       5.196 -15.865 -44.611  1.00  0.00     0.021 A 
ATOM      4  C   UNL     1       5.256 -16.754 -43.555  1.00  0.00     0.113 A 
ATOM      5  N   UNL     1       4.225 -17.002 -42.716  1.00  0.00    -0.239 NA
ATOM      6  C   UNL     1       3.056 -16.345 -42.911  1.00  0.00     0.139 A 
ENDROOT
BRANCH   1   7
ATOM      7  C   UNL     1       1.650 -14.696 -44.165  1.00  0.00     0.259 C 
ATOM      8  N   UNL     1       1.802 -13.326 -44.273  1.00  0.00    -0.322 N 
ATOM      9  O   UNL     1       0.607 -15.341 -44.204  1.00  0.00    -0.269 OA
ATOM     10  H   UNL     1       2.749 -12.973 -44.300  1.00  0.00     0.170 HD
BRANCH   8  11
ATOM     11  C   UNL     1       0.783 -12.360 -44.429  1.00  0.00     0.043 A 
ATOM     12  C   UNL     1      -2.322  -9.468 -44.909  1.00  0.00     0.009 C 
ATOM     13  C   UNL     1      -1.862  -8.660 -43.659  1.00  0.00     0.124 C 
ATOM     14  C   UNL     1      -1.256 -10.529 -44.929  1.00  0.00    -0.017 A 
ATOM     15  N   UNL     1      -1.089  -9.569 -42.795  1.00  0.00    -0.384 N 
ATOM     16  C   UNL     1      -0.930 -11.441 -45.918  1.00  0.00     0.008 A 
ATOM     17  C   UNL     1      -0.570 -10.515 -43.715  1.00  0.00     0.040 A 
ATOM     18  C   UNL     1       0.099 -12.353 -45.663  1.00  0.00     0.026 A 
ATOM     19  C   UNL     1       0.430 -11.436 -43.442  1.00  0.00     0.052 A 
ATOM     20  C   UNL     1      -3.704 -10.094 -44.687  1.00  0.00     0.018 C 
ATOM     21  C   UNL     1      -2.324  -8.592 -46.162  1.00  0.00     0.018 C 
ATOM     22  H   UNL     1      -0.345  -9.132 -42.257  1.00  0.00     0.160 HD
ENDBRANCH   8  11
ENDBRANCH   1   7
BRANCH   6  23
ATOM     23  N   UNL     1       1.950 -16.648 -42.099  1.00  0.00    -0.365 N 
ATOM     24  H   UNL     1       1.754 -15.837 -41.507  1.00  0.00     0.162 HD
BRANCH  23  25
ATOM     25  C   UNL     1       1.999 -17.888 -41.343  1.00  0.00     0.150 C 
BRANCH  25  26
ATOM     26  C   UNL     1       0.740 -18.692 -41.546  1.00  0.00    -0.026 A 
ATOM     27  C   UNL     1      -0.339 -18.171 -42.264  1.00  0.00     0.025 A 
ATOM     28  C   UNL     1       0.616 -19.978 -41.009  1.00  0.00     0.025 A 
ATOM     29  C   UNL     1      -1.475 -18.949 -42.422  1.00  0.00     0.111 A 
ATOM     30  C   UNL     1      -0.560 -20.679 -41.221  1.00  0.00     0.111 A 
ATOM     31  N   UNL     1      -1.609 -20.197 -41.924  1.00  0.00    -0.265 NA
ENDBRANCH  25  26
ENDBRANCH  23  25
ENDBRANCH   6  23
TORSDOF 5
ENDMDL
MODEL 7
REMARK minimizedAffinity -7.71925449
REMARK minimizedRMSD -1
REMARK SMILES CC1(C)CNc2cc(NC(=O)c3cccnc3NCc3ccncc3)ccc21
REMARK SMILES IDX 12 1 13 2 14 3 15 4 16 5 17 6 10 7 9 8 11 9 8 11 2 12 4 13
REMARK SMILES IDX 28 14 5 15 27 16 6 17 26 18 7 19 1 20 3 21 18 23 19 25 20 26
REMARK SMILES IDX 21 27 25 28 22 29 24 30 23 31
REMARK H PARENT 9 10 5 22 18 24
ROOT
ATOM      1  C   UNL     1       4.292 -11.286 -45.370  1.00  0.00     0.082 A 
ATOM      2  C   UNL     1       4.707 -12.560 -44.957  1.00  0.00     0.019 A 
ATOM      3  C   UNL     1       6.065 -12.835 -44.880  1.00  0.00     0.021 A 
ATOM      4  C   UNL     1       6.948 -11.830 -45.225  1.00  0.00     0.113 A 
ATOM      5  N   UNL     1       6.570 -10.599 -45.636  1.00  0.00    -0.239 NA
ATOM      6  C   UNL     1       5.247 -10.319 -45.720  1.00  0.00     0.139 A 
ENDROOT
BRANCH   1   7
ATOM      7  C   UNL     1       2.845 -10.990 -45.496  1.00  0.00     0.259 C 
ATOM      8  N   UNL     1       2.373 -10.051 -44.599  1.00  0.00    -0.322 N 
ATOM      9  O   UNL     1       2.211 -11.591 -46.358  1.00  0.00    -0.269 OA
ATOM     10  H   UNL     1       3.059  -9.597 -44.009  1.00  0.00     0.170 HD
BRANCH   8  11
ATOM     11  C   UNL     1       1.045  -9.591 -44.459  1.00  0.00     0.043 A 
ATOM     12  C   UNL     1      -2.972  -8.195 -44.074  1.00  0.00     0.009 C 
ATOM     13  C   UNL     1      -3.327  -9.284 -43.020  1.00  0.00     0.124 C 
ATOM     14  C   UNL     1      -1.516  -8.509 -44.280  1.00  0.00    -0.017 A 
ATOM     15  N   UNL     1      -2.374 -10.396 -43.182  1.00  0.00    -0.384 N 
ATOM     16  C   UNL     1      -0.532  -7.774 -44.920  1.00  0.00     0.008 A 
ATOM     17  C   UNL     1      -1.231  -9.756 -43.724  1.00  0.00     0.040 A 
ATOM     18  C   UNL     1       0.753  -8.320 -44.999  1.00  0.00     0.026 A 
ATOM     19  C   UNL     1       0.032 -10.318 -43.827  1.00  0.00     0.052 A 
ATOM     20  C   UNL     1      -3.760  -8.403 -45.373  1.00  0.00     0.018 C 
ATOM     21  C   UNL     1      -3.213  -6.790 -43.520  1.00  0.00     0.018 C 
ATOM     22  H   UNL     1      -2.144 -10.902 -42.331  1.00  0.00     0.160 HD
ENDBRANCH   8  11
ENDBRANCH   1   7
BRANCH   6  23
ATOM     23  N   UNL     1       4.836  -9.022 -46.069  1.00  0.00    -0.365 N 
ATOM     24  H   UNL     1       4.757  -8.973 -47.089  1.00  0.00     0.162 HD
BRANCH  23  25
ATOM     25  C   UNL     1       5.595  -7.912 -45.518  1.00  0.00     0.150 C 
BRANCH  25  26
ATOM     26  C   UNL     1       4.896  -7.326 -44.317  1.00  0.00    -0.026 A 
ATOM     27  C   UNL     1       5.263  -7.695 -43.020  1.00  0.00     0.025 A 
ATOM     28  C   UNL     1       3.855  -6.406 -44.472  1.00  0.00     0.025 A 
ATOM     29  C   UNL     1       4.589  -7.128 -41.950  1.00  0.00     0.111 A 
ATOM     30  C   UNL     1       3.242  -5.894 -43.339  1.00  0.00     0.111 A 
ATOM     31  N   UNL     1       3.591  -6.228 -42.078  1.00  0.00    -0.265 NA
ENDBRANCH  25  26
ENDBRANCH  23  25
ENDBRANCH   6  23
TORSDOF 5
ENDMDL
MODEL 8
REMARK minimizedAffinity -7.70111179
REMARK minimizedRMSD -1
REMARK SMILES CC1(C)CNc2cc(NC(=O)c3cccnc3NCc3ccncc3)ccc21
REMARK SMILES IDX 12 1 13 2 14 3 15 4 16 5 17 6 10 7 9 8 11 9 8 11 2 12 4 13
REMARK SMILES IDX 28 14 5 15 27 16 6 17 26 18 7 19 1 20 3 21 18 23 19 25 20 26
REMARK SMILES IDX 21 27 25 28 22 29 24 30 23 31
REMARK H PARENT 9 10 5 22 18 24
ROOT
ATOM      1  C   UNL     1       2.276 -10.413 -45.316  1.00  0.00     0.082 A 
ATOM      2  C   UNL     1       3.045  -9.241 -45.344  1.00  0.00     0.019 A 
ATOM      3  C   UNL     1       4.429  -9.342 -45.340  1.00  0.00     0.021 A 
ATOM      4  C   UNL     1       4.984 -10.606 -45.300  1.00  0.00     0.113 A 
ATOM      5  N   UNL     1       4.262 -11.749 -45.260  1.00  0.00    -0.239 NA
ATOM      6  C   UNL     1       2.911 -11.663 -45.259  1.00  0.00     0.139 A 
ENDROOT
BRANCH   1   7
ATOM      7  C   UNL     1       0.798 -10.320 -45.278  1.00  0.00     0.259 C 
ATOM      8  N   UNL     1       0.305  -9.419 -44.351  1.00  0.00    -0.322 N 
ATOM      9  O   UNL     1       0.159 -11.032 -46.045  1.00  0.00    -0.269 OA
ATOM     10  H   UNL     1       0.984  -8.855 -43.857  1.00  0.00     0.170 HD
BRANCH   8  11
ATOM     11  C   UNL     1      -1.049  -9.137 -44.066  1.00  0.00     0.043 A 
ATOM     12  C   UNL     1      -5.147  -8.267 -43.239  1.00  0.00     0.009 C 
ATOM     13  C   UNL     1      -5.384  -9.657 -42.578  1.00  0.00     0.124 C 
ATOM     14  C   UNL     1      -3.679  -8.380 -43.542  1.00  0.00    -0.017 A 
ATOM     15  N   UNL     1      -4.355 -10.579 -43.088  1.00  0.00    -0.384 N 
ATOM     16  C   UNL     1      -2.774  -7.404 -43.924  1.00  0.00     0.008 A 
ATOM     17  C   UNL     1      -3.282  -9.710 -43.408  1.00  0.00     0.040 A 
ATOM     18  C   UNL     1      -1.454  -7.790 -44.178  1.00  0.00     0.026 A 
ATOM     19  C   UNL     1      -1.983 -10.106 -43.689  1.00  0.00     0.052 A 
ATOM     20  C   UNL     1      -5.957  -8.123 -44.534  1.00  0.00     0.018 C 
ATOM     21  C   UNL     1      -5.477  -7.131 -42.271  1.00  0.00     0.018 C 
ATOM     22  H   UNL     1      -4.060 -11.305 -42.439  1.00  0.00     0.160 HD
ENDBRANCH   8  11
ENDBRANCH   1   7
BRANCH   6  23
ATOM     23  N   UNL     1       2.144 -12.840 -45.298  1.00  0.00    -0.365 N 
ATOM     24  H   UNL     1       1.317 -12.667 -45.875  1.00  0.00     0.162 HD
BRANCH  23  25
ATOM     25  C   UNL     1       1.813 -13.461 -44.027  1.00  0.00     0.150 C 
BRANCH  25  26
ATOM     26  C   UNL     1       0.773 -14.538 -44.208  1.00  0.00    -0.026 A 
ATOM     27  C   UNL     1       0.297 -14.870 -45.478  1.00  0.00     0.025 A 
ATOM     28  C   UNL     1       0.251 -15.223 -43.106  1.00  0.00     0.025 A 
ATOM     29  C   UNL     1      -0.660 -15.867 -45.592  1.00  0.00     0.111 A 
ATOM     30  C   UNL     1      -0.703 -16.205 -43.323  1.00  0.00     0.111 A 
ATOM     31  N   UNL     1      -1.167 -16.550 -44.544  1.00  0.00    -0.265 NA
ENDBRANCH  25  26
ENDBRANCH  23  25
ENDBRANCH   6  23
TORSDOF 5
ENDMDL
MODEL 9
REMARK minimizedAffinity -7.6307869
REMARK minimizedRMSD -1
REMARK SMILES CC1(C)CNc2cc(NC(=O)c3cccnc3NCc3ccncc3)ccc21
REMARK SMILES IDX 12 1 13 2 14 3 15 4 16 5 17 6 10 7 9 8 11 9 8 11 2 12 4 13
REMARK SMILES IDX 28 14 5 15 27 16 6 17 26 18 7 19 1 20 3 21 18 23 19 25 20 26
REMARK SMILES IDX 21 27 25 28 22 29 24 30 23 31
REMARK H PARENT 9 10 5 22 18 24
ROOT
ATOM      1  C   UNL     1       2.392  -8.002 -46.139  1.00  0.00     0.082 A 
ATOM      2  C   UNL     1       2.693  -6.983 -47.054  1.00  0.00     0.019 A 
ATOM      3  C   UNL     1       3.849  -7.080 -47.815  1.00  0.00     0.021 A 
ATOM      4  C   UNL     1       4.657  -8.184 -47.625  1.00  0.00     0.113 A 
ATOM      5  N   UNL     1       4.392  -9.172 -46.740  1.00  0.00    -0.239 NA
ATOM      6  C   UNL     1       3.269  -9.087 -45.988  1.00  0.00     0.139 A 
ENDROOT
BRANCH   1   7
ATOM      7  C   UNL     1       1.182  -7.892 -45.290  1.00  0.00     0.259 C 
ATOM      8  N   UNL     1       0.004  -8.240 -45.925  1.00  0.00    -0.322 N 
ATOM      9  O   UNL     1       1.327  -7.510 -44.133  1.00  0.00    -0.269 OA
ATOM     10  H   UNL     1       0.084  -8.612 -46.862  1.00  0.00     0.170 HD
BRANCH   8  11
ATOM     11  C   UNL     1      -1.301  -8.208 -45.387  1.00  0.00     0.043 A 
ATOM     12  C   UNL     1      -5.234  -8.099 -43.728  1.00  0.00     0.009 C 
ATOM     13  C   UNL     1      -5.824  -7.394 -44.985  1.00  0.00     0.124 C 
ATOM     14  C   UNL     1      -3.813  -8.281 -44.184  1.00  0.00    -0.017 A 
ATOM     15  N   UNL     1      -4.717  -6.720 -45.683  1.00  0.00    -0.384 N 
ATOM     16  C   UNL     1      -2.798  -9.051 -43.642  1.00  0.00     0.008 A 
ATOM     17  C   UNL     1      -3.590  -7.498 -45.317  1.00  0.00     0.040 A 
ATOM     18  C   UNL     1      -1.542  -9.014 -44.255  1.00  0.00     0.026 A 
ATOM     19  C   UNL     1      -2.340  -7.431 -45.912  1.00  0.00     0.052 A 
ATOM     20  C   UNL     1      -5.294  -7.184 -42.499  1.00  0.00     0.018 C 
ATOM     21  C   UNL     1      -5.951  -9.421 -43.447  1.00  0.00     0.018 C 
ATOM     22  H   UNL     1      -4.811  -6.661 -46.695  1.00  0.00     0.160 HD
ENDBRANCH   8  11
ENDBRANCH   1   7
BRANCH   6  23
ATOM     23  N   UNL     1       2.937 -10.142 -45.121  1.00  0.00    -0.365 N 
ATOM     24  H   UNL     1       3.319  -9.930 -44.195  1.00  0.00     0.162 HD
BRANCH  23  25
ATOM     25  C   UNL     1       3.260 -11.489 -45.559  1.00  0.00     0.150 C 
BRANCH  25  26
ATOM     26  C   UNL     1       2.006 -12.277 -45.845  1.00  0.00    -0.026 A 
ATOM     27  C   UNL     1       0.760 -11.648 -45.905  1.00  0.00     0.025 A 
ATOM     28  C   UNL     1       2.058 -13.660 -46.046  1.00  0.00     0.025 A 
ATOM     29  C   UNL     1      -0.363 -12.416 -46.170  1.00  0.00     0.111 A 
ATOM     30  C   UNL     1       0.880 -14.341 -46.306  1.00  0.00     0.111 A 
ATOM     31  N   UNL     1      -0.332 -13.749 -46.381  1.00  0.00    -0.265 NA
ENDBRANCH  25  26
ENDBRANCH  23  25
ENDBRANCH   6  23
TORSDOF 5
ENDMDL
MODEL 10
REMARK minimizedAffinity -7.63065624
REMARK minimizedRMSD -1
REMARK SMILES CC1(C)CNc2cc(NC(=O)c3cccnc3NCc3ccncc3)ccc21
REMARK SMILES IDX 12 1 13 2 14 3 15 4 16 5 17 6 10 7 9 8 11 9 8 11 2 12 4 13
REMARK SMILES IDX 28 14 5 15 27 16 6 17 26 18 7 19 1 20 3 21 18 23 19 25 20 26
REMARK SMILES IDX 21 27 25 28 22 29 24 30 23 31
REMARK H PARENT 9 10 5 22 18 24
ROOT
ATOM      1  C   UNL     1       3.512 -11.461 -45.512  1.00  0.00     0.082 A 
ATOM      2  C   UNL     1       4.457 -10.426 -45.481  1.00  0.00     0.019 A 
ATOM      3  C   UNL     1       5.798 -10.741 -45.309  1.00  0.00     0.021 A 
ATOM      4  C   UNL     1       6.135 -12.073 -45.167  1.00  0.00     0.113 A 
ATOM      5  N   UNL     1       5.239 -13.086 -45.182  1.00  0.00    -0.239 NA
ATOM      6  C   UNL     1       3.928 -12.791 -45.345  1.00  0.00     0.139 A 
ENDROOT
BRANCH   1   7
ATOM      7  C   UNL     1       2.073 -11.137 -45.654  1.00  0.00     0.259 C 
ATOM      8  N   UNL     1       1.633 -10.118 -44.830  1.00  0.00    -0.322 N 
ATOM      9  O   UNL     1       1.417 -11.785 -46.463  1.00  0.00    -0.269 OA
ATOM     10  H   UNL     1       2.335  -9.638 -44.281  1.00  0.00     0.170 HD
BRANCH   8  11
ATOM     11  C   UNL     1       0.319  -9.612 -44.719  1.00  0.00     0.043 A 
ATOM     12  C   UNL     1      -3.646  -8.070 -44.348  1.00  0.00     0.009 C 
ATOM     13  C   UNL     1      -3.624  -7.468 -45.784  1.00  0.00     0.124 C 
ATOM     14  C   UNL     1      -2.298  -8.736 -44.334  1.00  0.00    -0.017 A 
ATOM     15  N   UNL     1      -2.216  -7.282 -46.173  1.00  0.00    -0.384 N 
ATOM     16  C   UNL     1      -1.770  -9.652 -43.441  1.00  0.00     0.008 A 
ATOM     17  C   UNL     1      -1.544  -8.271 -45.412  1.00  0.00     0.040 A 
ATOM     18  C   UNL     1      -0.459 -10.093 -43.644  1.00  0.00     0.026 A 
ATOM     19  C   UNL     1      -0.233  -8.679 -45.602  1.00  0.00     0.052 A 
ATOM     20  C   UNL     1      -3.716  -6.968 -43.285  1.00  0.00     0.018 C 
ATOM     21  C   UNL     1      -4.805  -9.054 -44.179  1.00  0.00     0.018 C 
ATOM     22  H   UNL     1      -2.020  -7.384 -47.165  1.00  0.00     0.160 HD
ENDBRANCH   8  11
ENDBRANCH   1   7
BRANCH   6  23
ATOM     23  N   UNL     1       2.992 -13.834 -45.442  1.00  0.00    -0.365 N 
ATOM     24  H   UNL     1       2.167 -13.483 -45.936  1.00  0.00     0.162 HD
BRANCH  23  25
ATOM     25  C   UNL     1       2.648 -14.536 -44.217  1.00  0.00     0.150 C 
BRANCH  25  26
ATOM     26  C   UNL     1       1.295 -15.192 -44.334  1.00  0.00    -0.026 A 
ATOM     27  C   UNL     1       0.555 -15.521 -43.197  1.00  0.00     0.025 A 
ATOM     28  C   UNL     1       0.753 -15.497 -45.587  1.00  0.00     0.025 A 
ATOM     29  C   UNL     1      -0.683 -16.124 -43.358  1.00  0.00     0.111 A 
ATOM     30  C   UNL     1      -0.494 -16.100 -45.645  1.00  0.00     0.111 A 
ATOM     31  N   UNL     1      -1.231 -16.415 -44.557  1.00  0.00    -0.265 NA
ENDBRANCH  25  26
ENDBRANCH  23  25
ENDBRANCH   6  23
TORSDOF 5
ENDMDL
MODEL 11
REMARK minimizedAffinity -7.62088156
REMARK minimizedRMSD -1
REMARK SMILES CC1(C)CNc2cc(NC(=O)c3cccnc3NCc3ccncc3)ccc21
REMARK SMILES IDX 12 1 13 2 14 3 15 4 16 5 17 6 10 7 9 8 11 9 8 11 2 12 4 13
REMARK SMILES IDX 28 14 5 15 27 16 6 17 26 18 7 19 1 20 3 21 18 23 19 25 20 26
REMARK SMILES IDX 21 27 25 28 22 29 24 30 23 31
REMARK H PARENT 9 10 5 22 18 24
ROOT
ATOM      1  C   UNL     1       3.841 -11.581 -45.397  1.00  0.00     0.082 A 
ATOM      2  C   UNL     1       4.805 -10.563 -45.401  1.00  0.00     0.019 A 
ATOM      3  C   UNL     1       6.144 -10.902 -45.273  1.00  0.00     0.021 A 
ATOM      4  C   UNL     1       6.462 -12.240 -45.138  1.00  0.00     0.113 A 
ATOM      5  N   UNL     1       5.548 -13.236 -45.119  1.00  0.00    -0.239 NA
ATOM      6  C   UNL     1       4.237 -12.918 -45.240  1.00  0.00     0.139 A 
ENDROOT
BRANCH   1   7
ATOM      7  C   UNL     1       2.404 -11.231 -45.492  1.00  0.00     0.259 C 
ATOM      8  N   UNL     1       1.997 -10.241 -44.617  1.00  0.00    -0.322 N 
ATOM      9  O   UNL     1       1.720 -11.836 -46.312  1.00  0.00    -0.269 OA
ATOM     10  H   UNL     1       2.719  -9.795 -44.065  1.00  0.00     0.170 HD
BRANCH   8  11
ATOM     11  C   UNL     1       0.694  -9.722 -44.455  1.00  0.00     0.043 A 
ATOM     12  C   UNL     1      -3.250  -8.148 -44.005  1.00  0.00     0.009 C 
ATOM     13  C   UNL     1      -3.634  -9.217 -42.940  1.00  0.00     0.124 C 
ATOM     14  C   UNL     1      -1.813  -8.527 -44.236  1.00  0.00    -0.017 A 
ATOM     15  N   UNL     1      -2.734 -10.370 -43.115  1.00  0.00    -0.384 N 
ATOM     16  C   UNL     1      -0.809  -7.839 -44.895  1.00  0.00     0.008 A 
ATOM     17  C   UNL     1      -1.574  -9.783 -43.680  1.00  0.00     0.040 A 
ATOM     18  C   UNL     1       0.449  -8.441 -44.996  1.00  0.00     0.026 A 
ATOM     19  C   UNL     1      -0.339 -10.402 -43.802  1.00  0.00     0.052 A 
ATOM     20  C   UNL     1      -4.069  -8.326 -45.289  1.00  0.00     0.018 C 
ATOM     21  C   UNL     1      -3.419  -6.732 -43.452  1.00  0.00     0.018 C 
ATOM     22  H   UNL     1      -2.511 -10.883 -42.265  1.00  0.00     0.160 HD
ENDBRANCH   8  11
ENDBRANCH   1   7
BRANCH   6  23
ATOM     23  N   UNL     1       3.280 -13.944 -45.302  1.00  0.00    -0.365 N 
ATOM     24  H   UNL     1       2.557 -13.670 -45.973  1.00  0.00     0.162 HD
BRANCH  23  25
ATOM     25  C   UNL     1       2.722 -14.411 -44.044  1.00  0.00     0.150 C 
BRANCH  25  26
ATOM     26  C   UNL     1       1.384 -15.073 -44.262  1.00  0.00    -0.026 A 
ATOM     27  C   UNL     1       0.617 -15.516 -43.182  1.00  0.00     0.025 A 
ATOM     28  C   UNL     1       0.883 -15.268 -45.553  1.00  0.00     0.025 A 
ATOM     29  C   UNL     1      -0.605 -16.119 -43.435  1.00  0.00     0.111 A 
ATOM     30  C   UNL     1      -0.352 -15.881 -45.703  1.00  0.00     0.111 A 
ATOM     31  N   UNL     1      -1.114 -16.305 -44.671  1.00  0.00    -0.265 NA
ENDBRANCH  25  26
ENDBRANCH  23  25
ENDBRANCH   6  23
TORSDOF 5
ENDMDL
MODEL 12
REMARK minimizedAffinity -7.5978961
REMARK minimizedRMSD -1
REMARK SMILES CC1(C)CNc2cc(NC(=O)c3cccnc3NCc3ccncc3)ccc21
REMARK SMILES IDX 12 1 13 2 14 3 15 4 16 5 17 6 10 7 9 8 11 9 8 11 2 12 4 13
REMARK SMILES IDX 28 14 5 15 27 16 6 17 26 18 7 19 1 20 3 21 18 23 19 25 20 26
REMARK SMILES IDX 21 27 25 28 22 29 24 30 23 31
REMARK H PARENT 9 10 5 22 18 24
ROOT
ATOM      1  C   UNL     1       5.236 -11.048 -45.425  1.00  0.00     0.082 A 
ATOM      2  C   UNL     1       5.149 -12.427 -45.189  1.00  0.00     0.019 A 
ATOM      3  C   UNL     1       6.306 -13.136 -44.900  1.00  0.00     0.021 A 
ATOM      4  C   UNL     1       7.499 -12.440 -44.866  1.00  0.00     0.113 A 
ATOM      5  N   UNL     1       7.607 -11.112 -45.101  1.00  0.00    -0.239 NA
ATOM      6  C   UNL     1       6.485 -10.411 -45.389  1.00  0.00     0.139 A 
ENDROOT
BRANCH   1   7
ATOM      7  C   UNL     1       4.014 -10.285 -45.776  1.00  0.00     0.259 C 
ATOM      8  N   UNL     1       2.926 -10.544 -44.964  1.00  0.00    -0.322 N 
ATOM      9  O   UNL     1       4.073  -9.518 -46.731  1.00  0.00    -0.269 OA
ATOM     10  H   UNL     1       3.083 -11.150 -44.169  1.00  0.00     0.170 HD
BRANCH   8  11
ATOM     11  C   UNL     1       1.628  -9.997 -45.070  1.00  0.00     0.043 A 
ATOM     12  C   UNL     1      -2.308  -8.366 -45.360  1.00  0.00     0.009 C 
ATOM     13  C   UNL     1      -1.772  -6.912 -45.519  1.00  0.00     0.124 C 
ATOM     14  C   UNL     1      -1.003  -9.111 -45.310  1.00  0.00    -0.017 A 
ATOM     15  N   UNL     1      -0.414  -6.869 -44.952  1.00  0.00    -0.384 N 
ATOM     16  C   UNL     1      -0.751 -10.469 -45.410  1.00  0.00     0.008 A 
ATOM     17  C   UNL     1       0.038  -8.204 -45.108  1.00  0.00     0.040 A 
ATOM     18  C   UNL     1       0.572 -10.905 -45.295  1.00  0.00     0.026 A 
ATOM     19  C   UNL     1       1.348  -8.631 -44.962  1.00  0.00     0.052 A 
ATOM     20  C   UNL     1      -3.077  -8.533 -44.044  1.00  0.00     0.018 C 
ATOM     21  C   UNL     1      -3.184  -8.765 -46.549  1.00  0.00     0.018 C 
ATOM     22  H   UNL     1       0.223  -6.210 -45.395  1.00  0.00     0.160 HD
ENDBRANCH   8  11
ENDBRANCH   1   7
BRANCH   6  23
ATOM     23  N   UNL     1       6.567  -9.018 -45.559  1.00  0.00    -0.365 N 
ATOM     24  H   UNL     1       7.146  -8.827 -46.381  1.00  0.00     0.162 HD
BRANCH  23  25
ATOM     25  C   UNL     1       6.965  -8.229 -44.405  1.00  0.00     0.150 C 
BRANCH  25  26
ATOM     26  C   UNL     1       5.770  -7.566 -43.768  1.00  0.00    -0.026 A 
ATOM     27  C   UNL     1       4.857  -6.839 -44.536  1.00  0.00     0.025 A 
ATOM     28  C   UNL     1       5.552  -7.654 -42.389  1.00  0.00     0.025 A 
ATOM     29  C   UNL     1       3.775  -6.247 -43.902  1.00  0.00     0.111 A 
ATOM     30  C   UNL     1       4.439  -7.028 -41.849  1.00  0.00     0.111 A 
ATOM     31  N   UNL     1       3.539  -6.331 -42.576  1.00  0.00    -0.265 NA
ENDBRANCH  25  26
ENDBRANCH  23  25
ENDBRANCH   6  23
TORSDOF 5
ENDMDL
MODEL 13
REMARK minimizedAffinity -7.575109
REMARK minimizedRMSD -1
REMARK SMILES CC1(C)CNc2cc(NC(=O)c3cccnc3NCc3ccncc3)ccc21
REMARK SMILES IDX 12 1 13 2 14 3 15 4 16 5 17 6 10 7 9 8 11 9 8 11 2 12 4 13
REMARK SMILES IDX 28 14 5 15 27 16 6 17 26 18 7 19 1 20 3 21 18 23 19 25 20 26
REMARK SMILES IDX 21 27 25 28 22 29 24 30 23 31
REMARK H PARENT 9 10 5 22 18 24
ROOT
ATOM      1  C   UNL     1       2.677  -9.694 -44.995  1.00  0.00     0.082 A 
ATOM      2  C   UNL     1       3.254  -8.458 -45.319  1.00  0.00     0.019 A 
ATOM      3  C   UNL     1       4.505  -8.435 -45.920  1.00  0.00     0.021 A 
ATOM      4  C   UNL     1       5.128  -9.644 -46.163  1.00  0.00     0.113 A 
ATOM      5  N   UNL     1       4.595 -10.846 -45.848  1.00  0.00    -0.239 NA
ATOM      6  C   UNL     1       3.377 -10.882 -45.257  1.00  0.00     0.139 A 
ENDROOT
BRANCH   1   7
ATOM      7  C   UNL     1       1.360  -9.733 -44.316  1.00  0.00     0.259 C 
ATOM      8  N   UNL     1       0.350  -9.071 -44.988  1.00  0.00    -0.322 N 
ATOM      9  O   UNL     1       1.285 -10.328 -43.246  1.00  0.00    -0.269 OA
ATOM     10  H   UNL     1       0.576  -8.703 -45.903  1.00  0.00     0.170 HD
BRANCH   8  11
ATOM     11  C   UNL     1      -0.992  -8.912 -44.578  1.00  0.00     0.043 A 
ATOM     12  C   UNL     1      -5.057  -8.410 -43.372  1.00  0.00     0.009 C 
ATOM     13  C   UNL     1      -5.181  -9.894 -42.917  1.00  0.00     0.124 C 
ATOM     14  C   UNL     1      -3.610  -8.392 -43.780  1.00  0.00    -0.017 A 
ATOM     15  N   UNL     1      -4.149 -10.670 -43.625  1.00  0.00    -0.384 N 
ATOM     16  C   UNL     1      -2.781  -7.320 -44.065  1.00  0.00     0.008 A 
ATOM     17  C   UNL     1      -3.143  -9.703 -43.876  1.00  0.00     0.040 A 
ATOM     18  C   UNL     1      -1.467  -7.588 -44.458  1.00  0.00     0.026 A 
ATOM     19  C   UNL     1      -1.851  -9.978 -44.295  1.00  0.00     0.052 A 
ATOM     20  C   UNL     1      -5.962  -8.121 -44.575  1.00  0.00     0.018 C 
ATOM     21  C   UNL     1      -5.370  -7.451 -42.222  1.00  0.00     0.018 C 
ATOM     22  H   UNL     1      -3.775 -11.466 -43.115  1.00  0.00     0.160 HD
ENDBRANCH   8  11
ENDBRANCH   1   7
BRANCH   6  23
ATOM     23  N   UNL     1       2.773 -12.123 -44.995  1.00  0.00    -0.365 N 
ATOM     24  H   UNL     1       3.246 -12.548 -44.192  1.00  0.00     0.162 HD
BRANCH  23  25
ATOM     25  C   UNL     1       2.636 -13.046 -46.109  1.00  0.00     0.150 C 
BRANCH  25  26
ATOM     26  C   UNL     1       1.464 -13.972 -45.901  1.00  0.00    -0.026 A 
ATOM     27  C   UNL     1       1.114 -14.410 -44.622  1.00  0.00     0.025 A 
ATOM     28  C   UNL     1       0.706 -14.424 -46.986  1.00  0.00     0.025 A 
ATOM     29  C   UNL     1       0.029 -15.262 -44.483  1.00  0.00     0.111 A 
ATOM     30  C   UNL     1      -0.361 -15.274 -46.744  1.00  0.00     0.111 A 
ATOM     31  N   UNL     1      -0.725 -15.699 -45.515  1.00  0.00    -0.265 NA
ENDBRANCH  25  26
ENDBRANCH  23  25
ENDBRANCH   6  23
TORSDOF 5
ENDMDL
MODEL 14
REMARK minimizedAffinity -7.5728364
REMARK minimizedRMSD -1
REMARK SMILES CC1(C)CNc2cc(NC(=O)c3cccnc3NCc3ccncc3)ccc21
REMARK SMILES IDX 12 1 13 2 14 3 15 4 16 5 17 6 10 7 9 8 11 9 8 11 2 12 4 13
REMARK SMILES IDX 28 14 5 15 27 16 6 17 26 18 7 19 1 20 3 21 18 23 19 25 20 26
REMARK SMILES IDX 21 27 25 28 22 29 24 30 23 31
REMARK H PARENT 9 10 5 22 18 24
ROOT
ATOM      1  C   UNL     1      -0.799  -6.498 -44.984  1.00  0.00     0.082 A 
ATOM      2  C   UNL     1      -0.795  -5.178 -44.512  1.00  0.00     0.019 A 
ATOM      3  C   UNL     1      -1.846  -4.338 -44.850  1.00  0.00     0.021 A 
ATOM      4  C   UNL     1      -2.850  -4.848 -45.650  1.00  0.00     0.113 A 
ATOM      5  N   UNL     1      -2.868  -6.114 -46.126  1.00  0.00    -0.239 NA
ATOM      6  C   UNL     1      -1.845  -6.943 -45.806  1.00  0.00     0.139 A 
ENDROOT
BRANCH   1   7
ATOM      7  C   UNL     1       0.337  -7.395 -44.665  1.00  0.00     0.259 C 
ATOM      8  N   UNL     1       1.582  -6.864 -44.948  1.00  0.00    -0.322 N 
ATOM      9  O   UNL     1       0.081  -8.499 -44.196  1.00  0.00    -0.269 OA
ATOM     10  H   UNL     1       1.607  -5.902 -45.258  1.00  0.00     0.170 HD
BRANCH   8  11
ATOM     11  C   UNL     1       2.838  -7.488 -44.782  1.00  0.00     0.043 A 
ATOM     12  C   UNL     1       6.647  -9.359 -44.314  1.00  0.00     0.009 C 
ATOM     13  C   UNL     1       6.768  -8.908 -42.829  1.00  0.00     0.124 C 
ATOM     14  C   UNL     1       5.280  -8.821 -44.631  1.00  0.00    -0.017 A 
ATOM     15  N   UNL     1       5.890  -7.741 -42.640  1.00  0.00    -0.384 N 
ATOM     16  C   UNL     1       4.456  -9.071 -45.715  1.00  0.00     0.008 A 
ATOM     17  C   UNL     1       4.891  -7.933 -43.628  1.00  0.00     0.040 A 
ATOM     18  C   UNL     1       3.229  -8.404 -45.781  1.00  0.00     0.026 A 
ATOM     19  C   UNL     1       3.691  -7.243 -43.701  1.00  0.00     0.052 A 
ATOM     20  C   UNL     1       7.710  -8.682 -45.188  1.00  0.00     0.018 C 
ATOM     21  C   UNL     1       6.740 -10.881 -44.439  1.00  0.00     0.018 C 
ATOM     22  H   UNL     1       5.480  -7.648 -41.714  1.00  0.00     0.160 HD
ENDBRANCH   8  11
ENDBRANCH   1   7
BRANCH   6  23
ATOM     23  N   UNL     1      -1.886  -8.283 -46.226  1.00  0.00    -0.365 N 
ATOM     24  H   UNL     1      -1.366  -8.362 -47.104  1.00  0.00     0.162 HD
BRANCH  23  25
ATOM     25  C   UNL     1      -3.191  -8.919 -46.296  1.00  0.00     0.150 C 
BRANCH  25  26
ATOM     26  C   UNL     1      -3.787  -9.080 -44.920  1.00  0.00    -0.026 A 
ATOM     27  C   UNL     1      -4.946  -8.393 -44.553  1.00  0.00     0.025 A 
ATOM     28  C   UNL     1      -3.185  -9.915 -43.972  1.00  0.00     0.025 A 
ATOM     29  C   UNL     1      -5.453  -8.574 -43.276  1.00  0.00     0.111 A 
ATOM     30  C   UNL     1      -3.769 -10.031 -42.721  1.00  0.00     0.111 A 
ATOM     31  N   UNL     1      -4.896  -9.385 -42.351  1.00  0.00    -0.265 NA
ENDBRANCH  25  26
ENDBRANCH  23  25
ENDBRANCH   6  23
TORSDOF 5
ENDMDL
MODEL 15
REMARK minimizedAffinity -7.53965235
REMARK minimizedRMSD -1
REMARK SMILES CC1(C)CNc2cc(NC(=O)c3cccnc3NCc3ccncc3)ccc21
REMARK SMILES IDX 12 1 13 2 14 3 15 4 16 5 17 6 10 7 9 8 11 9 8 11 2 12 4 13
REMARK SMILES IDX 28 14 5 15 27 16 6 17 26 18 7 19 1 20 3 21 18 23 19 25 20 26
REMARK SMILES IDX 21 27 25 28 22 29 24 30 23 31
REMARK H PARENT 9 10 5 22 18 24
ROOT
ATOM      1  C   UNL     1      -0.860  -7.411 -45.376  1.00  0.00     0.082 A 
ATOM      2  C   UNL     1       0.146  -6.569 -44.882  1.00  0.00     0.019 A 
ATOM      3  C   UNL     1      -0.106  -5.209 -44.774  1.00  0.00     0.021 A 
ATOM      4  C   UNL     1      -1.346  -4.748 -45.171  1.00  0.00     0.113 A 
ATOM      5  N   UNL     1      -2.326  -5.541 -45.661  1.00  0.00    -0.239 NA
ATOM      6  C   UNL     1      -2.091  -6.869 -45.775  1.00  0.00     0.139 A 
ENDROOT
BRANCH   1   7
ATOM      7  C   UNL     1      -0.591  -8.860 -45.536  1.00  0.00     0.259 C 
ATOM      8  N   UNL     1       0.380  -9.358 -44.686  1.00  0.00    -0.322 N 
ATOM      9  O   UNL     1      -1.231  -9.471 -46.385  1.00  0.00    -0.269 OA
ATOM     10  H   UNL     1       0.747  -8.723 -43.990  1.00  0.00     0.170 HD
BRANCH   8  11
ATOM     11  C   UNL     1       0.868 -10.682 -44.626  1.00  0.00     0.043 A 
ATOM     12  C   UNL     1       2.382 -14.671 -44.434  1.00  0.00     0.009 C 
ATOM     13  C   UNL     1       1.163 -15.171 -43.604  1.00  0.00     0.124 C 
ATOM     14  C   UNL     1       1.966 -13.243 -44.657  1.00  0.00    -0.017 A 
ATOM     15  N   UNL     1       0.562 -14.003 -42.938  1.00  0.00    -0.384 N 
ATOM     16  C   UNL     1       2.484 -12.291 -45.519  1.00  0.00     0.008 A 
ATOM     17  C   UNL     1       0.908 -12.933 -43.802  1.00  0.00     0.040 A 
ATOM     18  C   UNL     1       1.924 -11.010 -45.503  1.00  0.00     0.026 A 
ATOM     19  C   UNL     1       0.368 -11.657 -43.757  1.00  0.00     0.052 A 
ATOM     20  C   UNL     1       3.676 -14.735 -43.614  1.00  0.00     0.018 C 
ATOM     21  C   UNL     1       2.530 -15.464 -45.733  1.00  0.00     0.018 C 
ATOM     22  H   UNL     1      -0.444 -14.051 -42.797  1.00  0.00     0.160 HD
ENDBRANCH   8  11
ENDBRANCH   1   7
BRANCH   6  23
ATOM     23  N   UNL     1      -3.123  -7.719 -46.207  1.00  0.00    -0.365 N 
ATOM     24  H   UNL     1      -3.100  -7.760 -47.230  1.00  0.00     0.162 HD
BRANCH  23  25
ATOM     25  C   UNL     1      -4.458  -7.459 -45.694  1.00  0.00     0.150 C 
BRANCH  25  26
ATOM     26  C   UNL     1      -4.762  -8.344 -44.511  1.00  0.00    -0.026 A 
ATOM     27  C   UNL     1      -4.105  -9.565 -44.340  1.00  0.00     0.025 A 
ATOM     28  C   UNL     1      -5.718  -7.969 -43.562  1.00  0.00     0.025 A 
ATOM     29  C   UNL     1      -4.420 -10.343 -43.237  1.00  0.00     0.111 A 
ATOM     30  C   UNL     1      -5.962  -8.815 -42.492  1.00  0.00     0.111 A 
ATOM     31  N   UNL     1      -5.329  -9.993 -42.302  1.00  0.00    -0.265 NA
ENDBRANCH  25  26
ENDBRANCH  23  25
ENDBRANCH   6  23
TORSDOF 5
ENDMDL
MODEL 16
REMARK minimizedAffinity -7.45360613
REMARK minimizedRMSD -1
REMARK SMILES CC1(C)CNc2cc(NC(=O)c3cccnc3NCc3ccncc3)ccc21
REMARK SMILES IDX 12 1 13 2 14 3 15 4 16 5 17 6 10 7 9 8 11 9 8 11 2 12 4 13
REMARK SMILES IDX 28 14 5 15 27 16 6 17 26 18 7 19 1 20 3 21 18 23 19 25 20 26
REMARK SMILES IDX 21 27 25 28 22 29 24 30 23 31
REMARK H PARENT 9 10 5 22 18 24
ROOT
ATOM      1  C   UNL     1       0.604 -19.222 -41.554  1.00  0.00     0.082 A 
ATOM      2  C   UNL     1       1.022 -20.531 -41.281  1.00  0.00     0.019 A 
ATOM      3  C   UNL     1       0.112 -21.571 -41.409  1.00  0.00     0.021 A 
ATOM      4  C   UNL     1      -1.177 -21.257 -41.796  1.00  0.00     0.113 A 
ATOM      5  N   UNL     1      -1.605 -20.000 -42.053  1.00  0.00    -0.239 NA
ATOM      6  C   UNL     1      -0.726 -18.977 -41.927  1.00  0.00     0.139 A 
ENDROOT
BRANCH   1   7
ATOM      7  C   UNL     1       1.553 -18.097 -41.382  1.00  0.00     0.259 C 
ATOM      8  N   UNL     1       2.797 -18.307 -41.949  1.00  0.00    -0.322 N 
ATOM      9  O   UNL     1       1.167 -17.110 -40.765  1.00  0.00    -0.269 OA
ATOM     10  H   UNL     1       2.914 -19.152 -42.492  1.00  0.00     0.170 HD
BRANCH   8  11
ATOM     11  C   UNL     1       3.909 -17.437 -41.923  1.00  0.00     0.043 A 
ATOM     12  C   UNL     1       7.295 -14.836 -41.849  1.00  0.00     0.009 C 
ATOM     13  C   UNL     1       6.605 -13.791 -42.774  1.00  0.00     0.124 C 
ATOM     14  C   UNL     1       6.175 -15.829 -41.710  1.00  0.00    -0.017 A 
ATOM     15  N   UNL     1       5.549 -14.487 -43.529  1.00  0.00    -0.384 N 
ATOM     16  C   UNL     1       6.033 -16.891 -40.833  1.00  0.00     0.008 A 
ATOM     17  C   UNL     1       5.199 -15.559 -42.670  1.00  0.00     0.040 A 
ATOM     18  C   UNL     1       4.890 -17.689 -40.941  1.00  0.00     0.026 A 
ATOM     19  C   UNL     1       4.079 -16.365 -42.805  1.00  0.00     0.052 A 
ATOM     20  C   UNL     1       8.504 -15.478 -42.541  1.00  0.00     0.018 C 
ATOM     21  C   UNL     1       7.711 -14.207 -40.518  1.00  0.00     0.018 C 
ATOM     22  H   UNL     1       4.736 -13.923 -43.763  1.00  0.00     0.160 HD
ENDBRANCH   8  11
ENDBRANCH   1   7
BRANCH   6  23
ATOM     23  N   UNL     1      -1.131 -17.675 -42.267  1.00  0.00    -0.365 N 
ATOM     24  H   UNL     1      -1.875 -17.391 -41.624  1.00  0.00     0.162 HD
BRANCH  23  25
ATOM     25  C   UNL     1      -1.474 -17.425 -43.657  1.00  0.00     0.150 C 
BRANCH  25  26
ATOM     26  C   UNL     1      -0.657 -16.288 -44.217  1.00  0.00    -0.026 A 
ATOM     27  C   UNL     1      -0.060 -15.348 -43.373  1.00  0.00     0.025 A 
ATOM     28  C   UNL     1      -0.487 -16.139 -45.597  1.00  0.00     0.025 A 
ATOM     29  C   UNL     1       0.680 -14.321 -43.937  1.00  0.00     0.111 A 
ATOM     30  C   UNL     1       0.272 -15.078 -46.065  1.00  0.00     0.111 A 
ATOM     31  N   UNL     1       0.868 -14.167 -45.265  1.00  0.00    -0.265 NA
ENDBRANCH  25  26
ENDBRANCH  23  25
ENDBRANCH   6  23
TORSDOF 5
ENDMDL
MODEL 17
REMARK minimizedAffinity -7.37819862
REMARK minimizedRMSD -1
REMARK SMILES CC1(C)CNc2cc(NC(=O)c3cccnc3NCc3ccncc3)ccc21
REMARK SMILES IDX 12 1 13 2 14 3 15 4 16 5 17 6 10 7 9 8 11 9 8 11 2 12 4 13
REMARK SMILES IDX 28 14 5 15 27 16 6 17 26 18 7 19 1 20 3 21 18 23 19 25 20 26
REMARK SMILES IDX 21 27 25 28 22 29 24 30 23 31
REMARK H PARENT 9 10 5 22 18 24
ROOT
ATOM      1  C   UNL     1      -0.883  -7.349 -44.813  1.00  0.00     0.082 A 
ATOM      2  C   UNL     1      -2.010  -7.092 -44.019  1.00  0.00     0.019 A 
ATOM      3  C   UNL     1      -2.319  -5.780 -43.690  1.00  0.00     0.021 A 
ATOM      4  C   UNL     1      -1.486  -4.783 -44.161  1.00  0.00     0.113 A 
ATOM      5  N   UNL     1      -0.389  -5.009 -44.919  1.00  0.00    -0.239 NA
ATOM      6  C   UNL     1      -0.075  -6.286 -45.242  1.00  0.00     0.139 A 
ENDROOT
BRANCH   1   7
ATOM      7  C   UNL     1      -0.518  -8.748 -45.137  1.00  0.00     0.259 C 
ATOM      8  N   UNL     1       0.293  -9.360 -44.199  1.00  0.00    -0.322 N 
ATOM      9  O   UNL     1      -0.949  -9.225 -46.182  1.00  0.00    -0.269 OA
ATOM     10  H   UNL     1       0.486  -8.838 -43.353  1.00  0.00     0.170 HD
BRANCH   8  11
ATOM     11  C   UNL     1       0.825 -10.667 -44.247  1.00  0.00     0.043 A 
ATOM     12  C   UNL     1       2.469 -14.605 -44.383  1.00  0.00     0.009 C 
ATOM     13  C   UNL     1       1.254 -15.218 -43.626  1.00  0.00     0.124 C 
ATOM     14  C   UNL     1       2.009 -13.177 -44.485  1.00  0.00    -0.017 A 
ATOM     15  N   UNL     1       0.603 -14.134 -42.870  1.00  0.00    -0.384 N 
ATOM     16  C   UNL     1       2.509 -12.136 -45.248  1.00  0.00     0.008 A 
ATOM     17  C   UNL     1       0.927 -12.980 -43.627  1.00  0.00     0.040 A 
ATOM     18  C   UNL     1       1.906 -10.880 -45.128  1.00  0.00     0.026 A 
ATOM     19  C   UNL     1       0.343 -11.732 -43.479  1.00  0.00     0.052 A 
ATOM     20  C   UNL     1       3.751 -14.702 -43.546  1.00  0.00     0.018 C 
ATOM     21  C   UNL     1       2.666 -15.274 -45.744  1.00  0.00     0.018 C 
ATOM     22  H   UNL     1      -0.404 -14.228 -42.754  1.00  0.00     0.160 HD
ENDBRANCH   8  11
ENDBRANCH   1   7
BRANCH   6  23
ATOM     23  N   UNL     1       1.016  -6.534 -46.093  1.00  0.00    -0.365 N 
ATOM     24  H   UNL     1       1.144  -7.547 -46.165  1.00  0.00     0.162 HD
BRANCH  23  25
ATOM     25  C   UNL     1       2.257  -5.836 -45.804  1.00  0.00     0.150 C 
BRANCH  25  26
ATOM     26  C   UNL     1       3.129  -6.649 -44.880  1.00  0.00    -0.026 A 
ATOM     27  C   UNL     1       3.816  -7.773 -45.343  1.00  0.00     0.025 A 
ATOM     28  C   UNL     1       3.262  -6.302 -43.531  1.00  0.00     0.025 A 
ATOM     29  C   UNL     1       4.603  -8.488 -44.453  1.00  0.00     0.111 A 
ATOM     30  C   UNL     1       4.074  -7.079 -42.721  1.00  0.00     0.111 A 
ATOM     31  N   UNL     1       4.757  -8.162 -43.152  1.00  0.00    -0.265 NA
ENDBRANCH  25  26
ENDBRANCH  23  25
ENDBRANCH   6  23
TORSDOF 5
ENDMDL
MODEL 18
REMARK minimizedAffinity -7.34254265
REMARK minimizedRMSD -1
REMARK SMILES CC1(C)CNc2cc(NC(=O)c3cccnc3NCc3ccncc3)ccc21
REMARK SMILES IDX 12 1 13 2 14 3 15 4 16 5 17 6 10 7 9 8 11 9 8 11 2 12 4 13
REMARK SMILES IDX 28 14 5 15 27 16 6 17 26 18 7 19 1 20 3 21 18 23 19 25 20 26
REMARK SMILES IDX 21 27 25 28 22 29 24 30 23 31
REMARK H PARENT 9 10 5 22 18 24
ROOT
ATOM      1  C   UNL     1       5.129 -14.239 -45.381  1.00  0.00     0.082 A 
ATOM      2  C   UNL     1       4.882 -15.437 -46.065  1.00  0.00     0.019 A 
ATOM      3  C   UNL     1       5.952 -16.149 -46.588  1.00  0.00     0.021 A 
ATOM      4  C   UNL     1       7.220 -15.630 -46.412  1.00  0.00     0.113 A 
ATOM      5  N   UNL     1       7.481 -14.471 -45.766  1.00  0.00    -0.239 NA
ATOM      6  C   UNL     1       6.444 -13.765 -45.255  1.00  0.00     0.139 A 
ENDROOT
BRANCH   1   7
ATOM      7  C   UNL     1       3.993 -13.447 -44.853  1.00  0.00     0.259 C 
ATOM      8  N   UNL     1       3.261 -12.783 -45.820  1.00  0.00    -0.322 N 
ATOM      9  O   UNL     1       3.811 -13.446 -43.640  1.00  0.00    -0.269 OA
ATOM     10  H   UNL     1       3.508 -12.964 -46.784  1.00  0.00     0.170 HD
BRANCH   8  11
ATOM     11  C   UNL     1       2.151 -11.934 -45.621  1.00  0.00     0.043 A 
ATOM     12  C   UNL     1      -1.225  -9.393 -44.999  1.00  0.00     0.009 C 
ATOM     13  C   UNL     1      -0.330  -8.144 -44.749  1.00  0.00     0.124 C 
ATOM     14  C   UNL     1      -0.160 -10.407 -45.312  1.00  0.00    -0.017 A 
ATOM     15  N   UNL     1       1.000  -8.619 -44.333  1.00  0.00    -0.384 N 
ATOM     16  C   UNL     1      -0.274 -11.676 -45.855  1.00  0.00     0.008 A 
ATOM     17  C   UNL     1       1.084  -9.897 -44.942  1.00  0.00     0.040 A 
ATOM     18  C   UNL     1       0.890 -12.433 -46.014  1.00  0.00     0.026 A 
ATOM     19  C   UNL     1       2.239 -10.653 -45.066  1.00  0.00     0.052 A 
ATOM     20  C   UNL     1      -1.993  -9.789 -43.732  1.00  0.00     0.018 C 
ATOM     21  C   UNL     1      -2.192  -9.157 -46.160  1.00  0.00     0.018 C 
ATOM     22  H   UNL     1       1.781  -8.027 -44.609  1.00  0.00     0.160 HD
ENDBRANCH   8  11
ENDBRANCH   1   7
BRANCH   6  23
ATOM     23  N   UNL     1       6.702 -12.600 -44.513  1.00  0.00    -0.365 N 
ATOM     24  H   UNL     1       6.284 -11.806 -45.005  1.00  0.00     0.162 HD
BRANCH  23  25
ATOM     25  C   UNL     1       8.080 -12.349 -44.125  1.00  0.00     0.150 C 
BRANCH  25  26
ATOM     26  C   UNL     1       8.269 -12.560 -42.643  1.00  0.00    -0.026 A 
ATOM     27  C   UNL     1       7.377 -12.011 -41.720  1.00  0.00     0.025 A 
ATOM     28  C   UNL     1       9.350 -13.303 -42.158  1.00  0.00     0.025 A 
ATOM     29  C   UNL     1       7.595 -12.233 -40.369  1.00  0.00     0.111 A 
ATOM     30  C   UNL     1       9.482 -13.469 -40.788  1.00  0.00     0.111 A 
ATOM     31  N   UNL     1       8.623 -12.958 -39.880  1.00  0.00    -0.265 NA
ENDBRANCH  25  26
ENDBRANCH  23  25
ENDBRANCH   6  23
TORSDOF 5
ENDMDL
MODEL 19
REMARK minimizedAffinity -7.29551172
REMARK minimizedRMSD -1
REMARK SMILES CC1(C)CNc2cc(NC(=O)c3cccnc3NCc3ccncc3)ccc21
REMARK SMILES IDX 12 1 13 2 14 3 15 4 16 5 17 6 10 7 9 8 11 9 8 11 2 12 4 13
REMARK SMILES IDX 28 14 5 15 27 16 6 17 26 18 7 19 1 20 3 21 18 23 19 25 20 26
REMARK SMILES IDX 21 27 25 28 22 29 24 30 23 31
REMARK H PARENT 9 10 5 22 18 24
ROOT
ATOM      1  C   UNL     1      -2.731  -9.833 -44.879  1.00  0.00     0.082 A 
ATOM      2  C   UNL     1      -3.794 -10.400 -44.163  1.00  0.00     0.019 A 
ATOM      3  C   UNL     1      -4.844  -9.589 -43.759  1.00  0.00     0.021 A 
ATOM      4  C   UNL     1      -4.784  -8.247 -44.080  1.00  0.00     0.113 A 
ATOM      5  N   UNL     1      -3.764  -7.676 -44.760  1.00  0.00    -0.239 NA
ATOM      6  C   UNL     1      -2.730  -8.457 -45.156  1.00  0.00     0.139 A 
ENDROOT
BRANCH   1   7
ATOM      7  C   UNL     1      -1.582 -10.679 -45.282  1.00  0.00     0.259 C 
ATOM      8  N   UNL     1      -0.821 -11.148 -44.227  1.00  0.00    -0.322 N 
ATOM      9  O   UNL     1      -1.410 -10.879 -46.479  1.00  0.00    -0.269 OA
ATOM     10  H   UNL     1      -1.159 -10.948 -43.295  1.00  0.00     0.170 HD
BRANCH   8  11
ATOM     11  C   UNL     1       0.343 -11.945 -44.298  1.00  0.00     0.043 A 
ATOM     12  C   UNL     1       3.882 -14.326 -44.493  1.00  0.00     0.009 C 
ATOM     13  C   UNL     1       3.121 -15.621 -44.082  1.00  0.00     0.124 C 
ATOM     14  C   UNL     1       2.730 -13.361 -44.540  1.00  0.00    -0.017 A 
ATOM     15  N   UNL     1       1.895 -15.217 -43.374  1.00  0.00    -0.384 N 
ATOM     16  C   UNL     1       2.665 -12.081 -45.064  1.00  0.00     0.008 A 
ATOM     17  C   UNL     1       1.622 -13.936 -43.918  1.00  0.00     0.040 A 
ATOM     18  C   UNL     1       1.462 -11.379 -44.945  1.00  0.00     0.026 A 
ATOM     19  C   UNL     1       0.436 -13.235 -43.767  1.00  0.00     0.052 A 
ATOM     20  C   UNL     1       4.892 -13.910 -43.416  1.00  0.00     0.018 C 
ATOM     21  C   UNL     1       4.579 -14.499 -45.843  1.00  0.00     0.018 C 
ATOM     22  H   UNL     1       1.100 -15.841 -43.486  1.00  0.00     0.160 HD
ENDBRANCH   8  11
ENDBRANCH   1   7
BRANCH   6  23
ATOM     23  N   UNL     1      -1.700  -7.898 -45.931  1.00  0.00    -0.365 N 
ATOM     24  H   UNL     1      -0.937  -8.578 -45.990  1.00  0.00     0.162 HD
BRANCH  23  25
ATOM     25  C   UNL     1      -1.235  -6.572 -45.562  1.00  0.00     0.150 C 
BRANCH  25  26
ATOM     26  C   UNL     1       0.202  -6.614 -45.105  1.00  0.00    -0.026 A 
ATOM     27  C   UNL     1       0.890  -7.825 -45.008  1.00  0.00     0.025 A 
ATOM     28  C   UNL     1       0.878  -5.440 -44.756  1.00  0.00     0.025 A 
ATOM     29  C   UNL     1       2.210  -7.811 -44.581  1.00  0.00     0.111 A 
ATOM     30  C   UNL     1       2.197  -5.528 -44.341  1.00  0.00     0.111 A 
ATOM     31  N   UNL     1       2.884  -6.688 -44.253  1.00  0.00    -0.265 NA
ENDBRANCH  25  26
ENDBRANCH  23  25
ENDBRANCH   6  23
TORSDOF 5
ENDMDL
MODEL 20
REMARK minimizedAffinity -7.21363878
REMARK minimizedRMSD -1
REMARK SMILES CC1(C)CNc2cc(NC(=O)c3cccnc3NCc3ccncc3)ccc21
REMARK SMILES IDX 12 1 13 2 14 3 15 4 16 5 17 6 10 7 9 8 11 9 8 11 2 12 4 13
REMARK SMILES IDX 28 14 5 15 27 16 6 17 26 18 7 19 1 20 3 21 18 23 19 25 20 26
REMARK SMILES IDX 21 27 25 28 22 29 24 30 23 31
REMARK H PARENT 9 10 5 22 18 24
ROOT
ATOM      1  C   UNL     1      -1.350  -7.411 -44.702  1.00  0.00     0.082 A 
ATOM      2  C   UNL     1      -1.871  -6.594 -43.689  1.00  0.00     0.019 A 
ATOM      3  C   UNL     1      -3.233  -6.628 -43.428  1.00  0.00     0.021 A 
ATOM      4  C   UNL     1      -4.017  -7.470 -44.194  1.00  0.00     0.113 A 
ATOM      5  N   UNL     1      -3.537  -8.257 -45.183  1.00  0.00    -0.239 NA
ATOM      6  C   UNL     1      -2.210  -8.229 -45.450  1.00  0.00     0.139 A 
ENDROOT
BRANCH   1   7
ATOM      7  C   UNL     1       0.097  -7.355 -45.019  1.00  0.00     0.259 C 
ATOM      8  N   UNL     1       0.838  -8.396 -44.492  1.00  0.00    -0.322 N 
ATOM      9  O   UNL     1       0.498  -6.415 -45.697  1.00  0.00    -0.269 OA
ATOM     10  H   UNL     1       0.325  -9.130 -44.022  1.00  0.00     0.170 HD
BRANCH   8  11
ATOM     11  C   UNL     1       2.232  -8.595 -44.598  1.00  0.00     0.043 A 
ATOM     12  C   UNL     1       6.445  -9.192 -44.959  1.00  0.00     0.009 C 
ATOM     13  C   UNL     1       6.753  -8.285 -43.731  1.00  0.00     0.124 C 
ATOM     14  C   UNL     1       4.943  -9.146 -44.936  1.00  0.00    -0.017 A 
ATOM     15  N   UNL     1       5.605  -7.381 -43.541  1.00  0.00    -0.384 N 
ATOM     16  C   UNL     1       4.020  -9.923 -45.616  1.00  0.00     0.008 A 
ATOM     17  C   UNL     1       4.526  -8.119 -44.089  1.00  0.00     0.040 A 
ATOM     18  C   UNL     1       2.662  -9.646 -45.437  1.00  0.00     0.026 A 
ATOM     19  C   UNL     1       3.183  -7.817 -43.930  1.00  0.00     0.052 A 
ATOM     20  C   UNL     1       6.985  -8.574 -46.255  1.00  0.00     0.018 C 
ATOM     21  C   UNL     1       7.008 -10.600 -44.761  1.00  0.00     0.018 C 
ATOM     22  H   UNL     1       5.417  -7.112 -42.578  1.00  0.00     0.160 HD
ENDBRANCH   8  11
ENDBRANCH   1   7
BRANCH   6  23
ATOM     23  N   UNL     1      -1.682  -9.098 -46.420  1.00  0.00    -0.365 N 
ATOM     24  H   UNL     1      -1.765  -8.647 -47.336  1.00  0.00     0.162 HD
BRANCH  23  25
ATOM     25  C   UNL     1      -2.176 -10.465 -46.429  1.00  0.00     0.150 C 
BRANCH  25  26
ATOM     26  C   UNL     1      -1.062 -11.442 -46.151  1.00  0.00    -0.026 A 
ATOM     27  C   UNL     1      -0.532 -11.581 -44.866  1.00  0.00     0.025 A 
ATOM     28  C   UNL     1      -0.523 -12.226 -47.176  1.00  0.00     0.025 A 
ATOM     29  C   UNL     1       0.493 -12.492 -44.662  1.00  0.00     0.111 A 
ATOM     30  C   UNL     1       0.500 -13.110 -46.872  1.00  0.00     0.111 A 
ATOM     31  N   UNL     1       1.017 -13.268 -45.634  1.00  0.00    -0.265 NA
ENDBRANCH  25  26
ENDBRANCH  23  25
ENDBRANCH   6  23
TORSDOF 5
ENDMDL
