MODEL 1
REMARK minimizedAffinity -8.99091625
REMARK minimizedRMSD -1
REMARK SMILES C=CC(=O)Nc1cc(Nc2nccc(-c3cn(C)c4ccccc34)n2)c(OC)cc1N(C)CCN(C)C
REMARK SMILES IDX 6 1 7 2 8 3 26 4 29 5 30 6 5 7 3 8 4 9 2 11 1 12 31 13 32 14
REMARK SMILES IDX 33 15 34 16 35 17 36 18 37 19 9 20 10 22 11 23 25 24 12 25
REMARK SMILES IDX 14 26 13 27 15 28 16 29 24 30 17 31 23 32 19 33 22 34 20 35
REMARK SMILES IDX 21 36 18 37 27 38 28 39
REMARK H PARENT 5 10 9 21
ROOT
ATOM      1  C   UNL     1      -1.226  -9.540 -43.877  1.00  0.00     0.067 A 
ATOM      2  C   UNL     1      -0.793 -10.883 -43.862  1.00  0.00     0.058 A 
ATOM      3  C   UNL     1       0.394 -11.275 -44.481  1.00  0.00     0.086 A 
ATOM      4  C   UNL     1       1.121 -10.290 -45.164  1.00  0.00     0.144 A 
ATOM      5  C   UNL     1       0.707  -8.959 -45.212  1.00  0.00     0.076 A 
ATOM      6  C   UNL     1      -0.497  -8.563 -44.602  1.00  0.00     0.064 A 
ENDROOT
BRANCH   1   7
ATOM      7  N   UNL     1      -2.429  -9.276 -43.178  1.00  0.00    -0.321 N 
ATOM      8  C   UNL     1      -3.639  -9.928 -43.337  1.00  0.00     0.247 C 
ATOM      9  O   UNL     1      -3.973 -10.722 -44.207  1.00  0.00    -0.270 OA
ATOM     10  H   UNL     1      -2.451  -8.398 -42.674  1.00  0.00     0.170 HD
BRANCH   8  11
ATOM     11  C   UNL     1      -4.626  -9.471 -42.307  1.00  0.00     0.064 C 
ATOM     12  C   UNL     1      -5.933  -9.405 -42.583  1.00  0.00     0.014 C 
ENDBRANCH   8  11
ENDBRANCH   1   7
BRANCH   6  13
ATOM     13  N   UNL     1      -1.042  -7.280 -44.846  1.00  0.00    -0.372 N 
ATOM     14  C   UNL     1      -0.062  -6.187 -44.913  1.00  0.00     0.143 C 
BRANCH  13  15
ATOM     15  C   UNL     1      -2.047  -7.319 -45.931  1.00  0.00     0.131 C 
BRANCH  15  16
ATOM     16  C   UNL     1      -3.193  -6.316 -45.673  1.00  0.00     0.105 C 
BRANCH  16  17
ATOM     17  N   UNL     1      -4.257  -6.843 -44.784  1.00  0.00    -0.308 NA
ATOM     18  C   UNL     1      -5.383  -7.331 -45.595  1.00  0.00     0.105 C 
ATOM     19  C   UNL     1      -4.734  -5.814 -43.851  1.00  0.00     0.105 C 
ENDBRANCH  16  17
ENDBRANCH  15  16
ENDBRANCH  13  15
ENDBRANCH   6  13
BRANCH   3  20
ATOM     20  N   UNL     1       0.860 -12.597 -44.471  1.00  0.00    -0.321 N 
ATOM     21  H   UNL     1       1.865 -12.685 -44.387  1.00  0.00     0.170 HD
BRANCH  20  22
ATOM     22  C   UNL     1       0.347 -13.747 -45.072  1.00  0.00     0.227 A 
ATOM     23  N   UNL     1       0.336 -13.902 -46.407  1.00  0.00    -0.221 NA
ATOM     24  N   UNL     1      -0.066 -14.689 -44.212  1.00  0.00    -0.213 NA
ATOM     25  C   UNL     1      -0.128 -15.075 -46.879  1.00  0.00     0.117 A 
ATOM     26  C   UNL     1      -0.532 -15.854 -44.718  1.00  0.00     0.078 A 
ATOM     27  C   UNL     1      -0.586 -16.088 -46.072  1.00  0.00     0.049 A 
BRANCH  26  28
ATOM     28  C   UNL     1      -0.971 -16.834 -43.723  1.00  0.00     0.026 A 
ATOM     29  C   UNL     1      -0.054 -17.568 -42.990  1.00  0.00     0.096 A 
ATOM     30  C   UNL     1      -2.277 -17.274 -43.295  1.00  0.00     0.009 A 
ATOM     31  N   UNL     1      -0.727 -18.383 -42.129  1.00  0.00    -0.350 N 
ATOM     32  C   UNL     1      -3.613 -16.976 -43.665  1.00  0.00     0.011 A 
ATOM     33  C   UNL     1      -2.085 -18.226 -42.281  1.00  0.00     0.048 A 
ATOM     34  C   UNL     1      -4.685 -17.589 -43.002  1.00  0.00     0.001 A 
ATOM     35  C   UNL     1      -3.154 -18.851 -41.614  1.00  0.00     0.027 A 
ATOM     36  C   UNL     1      -4.457 -18.509 -41.985  1.00  0.00     0.002 A 
ATOM     37  C   UNL     1      -0.092 -19.303 -41.210  1.00  0.00     0.149 C 
ENDBRANCH  26  28
ENDBRANCH  20  22
ENDBRANCH   3  20
BRANCH   4  38
ATOM     38  O   UNL     1       2.274 -10.653 -45.817  1.00  0.00    -0.494 OA
ATOM     39  C   UNL     1       3.316  -9.708 -45.541  1.00  0.00     0.278 C 
ENDBRANCH   4  38
TORSDOF 10
ENDMDL
MODEL 2
REMARK minimizedAffinity -8.5634737
REMARK minimizedRMSD -1
REMARK SMILES C=CC(=O)Nc1cc(Nc2nccc(-c3cn(C)c4ccccc34)n2)c(OC)cc1N(C)CCN(C)C
REMARK SMILES IDX 6 1 7 2 8 3 26 4 29 5 30 6 5 7 3 8 4 9 2 11 1 12 31 13 32 14
REMARK SMILES IDX 33 15 34 16 35 17 36 18 37 19 9 20 10 22 11 23 25 24 12 25
REMARK SMILES IDX 14 26 13 27 15 28 16 29 24 30 17 31 23 32 19 33 22 34 20 35
REMARK SMILES IDX 21 36 18 37 27 38 28 39
REMARK H PARENT 5 10 9 21
ROOT
ATOM      1  C   UNL     1      -1.210  -9.531 -43.897  1.00  0.00     0.067 A 
ATOM      2  C   UNL     1      -0.789 -10.877 -43.861  1.00  0.00     0.058 A 
ATOM      3  C   UNL     1       0.391 -11.290 -44.479  1.00  0.00     0.086 A 
ATOM      4  C   UNL     1       1.125 -10.322 -45.181  1.00  0.00     0.144 A 
ATOM      5  C   UNL     1       0.721  -8.988 -45.248  1.00  0.00     0.076 A 
ATOM      6  C   UNL     1      -0.476  -8.572 -44.640  1.00  0.00     0.064 A 
ENDROOT
BRANCH   1   7
ATOM      7  N   UNL     1      -2.409  -9.246 -43.197  1.00  0.00    -0.321 N 
ATOM      8  C   UNL     1      -3.640  -9.849 -43.382  1.00  0.00     0.247 C 
ATOM      9  O   UNL     1      -3.996 -10.606 -44.278  1.00  0.00    -0.270 OA
ATOM     10  H   UNL     1      -2.404  -8.383 -42.667  1.00  0.00     0.170 HD
BRANCH   8  11
ATOM     11  C   UNL     1      -4.617  -9.388 -42.345  1.00  0.00     0.064 C 
ATOM     12  C   UNL     1      -5.935  -9.429 -42.570  1.00  0.00     0.014 C 
ENDBRANCH   8  11
ENDBRANCH   1   7
BRANCH   6  13
ATOM     13  N   UNL     1      -1.011  -7.289 -44.902  1.00  0.00    -0.372 N 
ATOM     14  C   UNL     1      -0.017  -6.218 -45.063  1.00  0.00     0.143 C 
BRANCH  13  15
ATOM     15  C   UNL     1      -2.073  -7.348 -45.930  1.00  0.00     0.131 C 
BRANCH  15  16
ATOM     16  C   UNL     1      -3.171  -6.292 -45.667  1.00  0.00     0.105 C 
BRANCH  16  17
ATOM     17  N   UNL     1      -4.267  -6.777 -44.792  1.00  0.00    -0.308 NA
ATOM     18  C   UNL     1      -5.359  -7.311 -45.619  1.00  0.00     0.105 C 
ATOM     19  C   UNL     1      -4.781  -5.703 -43.934  1.00  0.00     0.105 C 
ENDBRANCH  16  17
ENDBRANCH  15  16
ENDBRANCH  13  15
ENDBRANCH   6  13
BRANCH   3  20
ATOM     20  N   UNL     1       0.847 -12.615 -44.450  1.00  0.00    -0.321 N 
ATOM     21  H   UNL     1       1.852 -12.711 -44.391  1.00  0.00     0.170 HD
BRANCH  20  22
ATOM     22  C   UNL     1       0.307 -13.774 -45.008  1.00  0.00     0.227 A 
ATOM     23  N   UNL     1       0.105 -13.893 -46.331  1.00  0.00    -0.221 NA
ATOM     24  N   UNL     1       0.076 -14.761 -44.131  1.00  0.00    -0.213 NA
ATOM     25  C   UNL     1      -0.367 -15.076 -46.771  1.00  0.00     0.117 A 
ATOM     26  C   UNL     1      -0.402 -15.936 -44.604  1.00  0.00     0.078 A 
ATOM     27  C   UNL     1      -0.647 -16.135 -45.942  1.00  0.00     0.049 A 
BRANCH  26  28
ATOM     28  C   UNL     1      -0.638 -16.965 -43.590  1.00  0.00     0.026 A 
ATOM     29  C   UNL     1      -1.860 -17.609 -43.495  1.00  0.00     0.096 A 
ATOM     30  C   UNL     1       0.190 -17.511 -42.542  1.00  0.00     0.009 A 
ATOM     31  N   UNL     1      -1.799 -18.526 -42.490  1.00  0.00    -0.350 N 
ATOM     32  C   UNL     1       1.501 -17.267 -42.062  1.00  0.00     0.011 A 
ATOM     33  C   UNL     1      -0.562 -18.501 -41.889  1.00  0.00     0.048 A 
ATOM     34  C   UNL     1       2.022 -18.025 -41.003  1.00  0.00     0.001 A 
ATOM     35  C   UNL     1      -0.052 -19.263 -40.822  1.00  0.00     0.027 A 
ATOM     36  C   UNL     1       1.256 -19.015 -40.398  1.00  0.00     0.002 A 
ATOM     37  C   UNL     1      -2.899 -19.380 -42.095  1.00  0.00     0.149 C 
ENDBRANCH  26  28
ENDBRANCH  20  22
ENDBRANCH   3  20
BRANCH   4  38
ATOM     38  O   UNL     1       2.272 -10.705 -45.832  1.00  0.00    -0.494 OA
ATOM     39  C   UNL     1       3.390  -9.951 -45.347  1.00  0.00     0.278 C 
ENDBRANCH   4  38
TORSDOF 10
ENDMDL
MODEL 3
REMARK minimizedAffinity -8.29883957
REMARK minimizedRMSD -1
REMARK SMILES C=CC(=O)Nc1cc(Nc2nccc(-c3cn(C)c4ccccc34)n2)c(OC)cc1N(C)CCN(C)C
REMARK SMILES IDX 6 1 7 2 8 3 26 4 29 5 30 6 5 7 3 8 4 9 2 11 1 12 31 13 32 14
REMARK SMILES IDX 33 15 34 16 35 17 36 18 37 19 9 20 10 22 11 23 25 24 12 25
REMARK SMILES IDX 14 26 13 27 15 28 16 29 24 30 17 31 23 32 19 33 22 34 20 35
REMARK SMILES IDX 21 36 18 37 27 38 28 39
REMARK H PARENT 5 10 9 21
ROOT
ATOM      1  C   UNL     1       1.721  -8.991 -44.224  1.00  0.00     0.067 A 
ATOM      2  C   UNL     1       1.467 -10.289 -43.731  1.00  0.00     0.058 A 
ATOM      3  C   UNL     1       0.345 -11.016 -44.130  1.00  0.00     0.086 A 
ATOM      4  C   UNL     1      -0.551 -10.388 -45.007  1.00  0.00     0.144 A 
ATOM      5  C   UNL     1      -0.335  -9.100 -45.494  1.00  0.00     0.076 A 
ATOM      6  C   UNL     1       0.786  -8.358 -45.082  1.00  0.00     0.064 A 
ENDROOT
BRANCH   1   7
ATOM      7  N   UNL     1       2.915  -8.384 -43.763  1.00  0.00    -0.321 N 
ATOM      8  C   UNL     1       4.150  -8.406 -44.387  1.00  0.00     0.247 C 
ATOM      9  O   UNL     1       4.513  -9.079 -45.343  1.00  0.00    -0.270 OA
ATOM     10  H   UNL     1       2.903  -8.091 -42.794  1.00  0.00     0.170 HD
BRANCH   8  11
ATOM     11  C   UNL     1       5.120  -7.518 -43.671  1.00  0.00     0.064 C 
ATOM     12  C   UNL     1       5.022  -7.304 -42.354  1.00  0.00     0.014 C 
ENDBRANCH   8  11
ENDBRANCH   1   7
BRANCH   6  13
ATOM     13  N   UNL     1       0.888  -6.978 -45.378  1.00  0.00    -0.372 N 
ATOM     14  C   UNL     1       1.805  -6.640 -46.476  1.00  0.00     0.143 C 
BRANCH  13  15
ATOM     15  C   UNL     1      -0.444  -6.337 -45.424  1.00  0.00     0.131 C 
BRANCH  15  16
ATOM     16  C   UNL     1      -0.635  -5.348 -44.252  1.00  0.00     0.105 C 
BRANCH  16  17
ATOM     17  N   UNL     1      -2.009  -5.347 -43.692  1.00  0.00    -0.308 NA
ATOM     18  C   UNL     1      -2.478  -6.731 -43.530  1.00  0.00     0.105 C 
ATOM     19  C   UNL     1      -2.939  -4.612 -44.558  1.00  0.00     0.105 C 
ENDBRANCH  16  17
ENDBRANCH  15  16
ENDBRANCH  13  15
ENDBRANCH   6  13
BRANCH   3  20
ATOM     20  N   UNL     1       0.073 -12.312 -43.673  1.00  0.00    -0.321 N 
ATOM     21  H   UNL     1       0.241 -12.452 -42.685  1.00  0.00     0.170 HD
BRANCH  20  22
ATOM     22  C   UNL     1       0.145 -13.542 -44.329  1.00  0.00     0.227 A 
ATOM     23  N   UNL     1       0.695 -13.660 -45.549  1.00  0.00    -0.221 NA
ATOM     24  N   UNL     1      -0.315 -14.581 -43.618  1.00  0.00    -0.213 NA
ATOM     25  C   UNL     1       0.767 -14.902 -46.066  1.00  0.00     0.117 A 
ATOM     26  C   UNL     1      -0.234 -15.815 -44.168  1.00  0.00     0.078 A 
ATOM     27  C   UNL     1       0.305 -16.021 -45.416  1.00  0.00     0.049 A 
BRANCH  26  28
ATOM     28  C   UNL     1      -0.760 -16.902 -43.340  1.00  0.00     0.026 A 
ATOM     29  C   UNL     1       0.087 -17.733 -42.628  1.00  0.00     0.096 A 
ATOM     30  C   UNL     1      -2.100 -17.369 -43.079  1.00  0.00     0.009 A 
ATOM     31  N   UNL     1      -0.660 -18.636 -41.933  1.00  0.00    -0.350 N 
ATOM     32  C   UNL     1      -3.398 -17.008 -43.518  1.00  0.00     0.011 A 
ATOM     33  C   UNL     1      -2.000 -18.440 -42.176  1.00  0.00     0.048 A 
ATOM     34  C   UNL     1      -4.526 -17.679 -43.027  1.00  0.00     0.001 A 
ATOM     35  C   UNL     1      -3.124 -19.125 -41.682  1.00  0.00     0.027 A 
ATOM     36  C   UNL     1      -4.390 -18.719 -42.114  1.00  0.00     0.002 A 
ATOM     37  C   UNL     1      -0.110 -19.671 -41.084  1.00  0.00     0.149 C 
ENDBRANCH  26  28
ENDBRANCH  20  22
ENDBRANCH   3  20
BRANCH   4  38
ATOM     38  O   UNL     1      -1.685 -11.063 -45.387  1.00  0.00    -0.494 OA
ATOM     39  C   UNL     1      -1.791 -11.084 -46.817  1.00  0.00     0.278 C 
ENDBRANCH   4  38
TORSDOF 10
ENDMDL
MODEL 4
REMARK minimizedAffinity -8.1288805
REMARK minimizedRMSD -1
REMARK SMILES C=CC(=O)Nc1cc(Nc2nccc(-c3cn(C)c4ccccc34)n2)c(OC)cc1N(C)CCN(C)C
REMARK SMILES IDX 6 1 7 2 8 3 26 4 29 5 30 6 5 7 3 8 4 9 2 11 1 12 31 13 32 14
REMARK SMILES IDX 33 15 34 16 35 17 36 18 37 19 9 20 10 22 11 23 25 24 12 25
REMARK SMILES IDX 14 26 13 27 15 28 16 29 24 30 17 31 23 32 19 33 22 34 20 35
REMARK SMILES IDX 21 36 18 37 27 38 28 39
REMARK H PARENT 5 10 9 21
ROOT
ATOM      1  C   UNL     1       1.386  -8.890 -44.270  1.00  0.00     0.067 A 
ATOM      2  C   UNL     1       1.227 -10.239 -43.888  1.00  0.00     0.058 A 
ATOM      3  C   UNL     1       0.141 -10.998 -44.322  1.00  0.00     0.086 A 
ATOM      4  C   UNL     1      -0.818 -10.356 -45.119  1.00  0.00     0.144 A 
ATOM      5  C   UNL     1      -0.695  -9.019 -45.495  1.00  0.00     0.076 A 
ATOM      6  C   UNL     1       0.389  -8.246 -45.046  1.00  0.00     0.064 A 
ENDROOT
BRANCH   1   7
ATOM      7  N   UNL     1       2.553  -8.250 -43.785  1.00  0.00    -0.321 N 
ATOM      8  C   UNL     1       3.826  -8.330 -44.323  1.00  0.00     0.247 C 
ATOM      9  O   UNL     1       4.244  -9.084 -45.193  1.00  0.00    -0.270 OA
ATOM     10  H   UNL     1       2.481  -7.875 -42.848  1.00  0.00     0.170 HD
BRANCH   8  11
ATOM     11  C   UNL     1       4.756  -7.387 -43.624  1.00  0.00     0.064 C 
ATOM     12  C   UNL     1       5.242  -7.668 -42.409  1.00  0.00     0.014 C 
ENDBRANCH   8  11
ENDBRANCH   1   7
BRANCH   6  13
ATOM     13  N   UNL     1       0.398  -6.841 -45.221  1.00  0.00    -0.372 N 
ATOM     14  C   UNL     1       1.385  -6.338 -46.187  1.00  0.00     0.143 C 
BRANCH  13  15
ATOM     15  C   UNL     1      -0.975  -6.308 -45.358  1.00  0.00     0.131 C 
BRANCH  15  16
ATOM     16  C   UNL     1      -1.331  -5.363 -44.187  1.00  0.00     0.105 C 
BRANCH  16  17
ATOM     17  N   UNL     1      -2.669  -5.619 -43.601  1.00  0.00    -0.308 NA
ATOM     18  C   UNL     1      -2.857  -7.065 -43.409  1.00  0.00     0.105 C 
ATOM     19  C   UNL     1      -3.738  -5.096 -44.461  1.00  0.00     0.105 C 
ENDBRANCH  16  17
ENDBRANCH  15  16
ENDBRANCH  13  15
ENDBRANCH   6  13
BRANCH   3  20
ATOM     20  N   UNL     1      -0.038 -12.345 -43.975  1.00  0.00    -0.321 N 
ATOM     21  H   UNL     1      -0.755 -12.505 -43.280  1.00  0.00     0.170 HD
BRANCH  20  22
ATOM     22  C   UNL     1       0.867 -13.406 -43.955  1.00  0.00     0.227 A 
ATOM     23  N   UNL     1       2.122 -13.274 -44.417  1.00  0.00    -0.221 NA
ATOM     24  N   UNL     1       0.401 -14.527 -43.385  1.00  0.00    -0.213 NA
ATOM     25  C   UNL     1       2.931 -14.345 -44.297  1.00  0.00     0.117 A 
ATOM     26  C   UNL     1       1.236 -15.586 -43.284  1.00  0.00     0.078 A 
ATOM     27  C   UNL     1       2.532 -15.537 -43.742  1.00  0.00     0.049 A 
BRANCH  26  28
ATOM     28  C   UNL     1       0.659 -16.777 -42.657  1.00  0.00     0.026 A 
ATOM     29  C   UNL     1      -0.668 -17.117 -42.857  1.00  0.00     0.096 A 
ATOM     30  C   UNL     1       1.204 -17.775 -41.770  1.00  0.00     0.009 A 
ATOM     31  N   UNL     1      -0.935 -18.270 -42.182  1.00  0.00    -0.350 N 
ATOM     32  C   UNL     1       2.456 -17.990 -41.141  1.00  0.00     0.011 A 
ATOM     33  C   UNL     1       0.184 -18.706 -41.512  1.00  0.00     0.048 A 
ATOM     34  C   UNL     1       2.659 -19.117 -40.332  1.00  0.00     0.001 A 
ATOM     35  C   UNL     1       0.376 -19.836 -40.697  1.00  0.00     0.027 A 
ATOM     36  C   UNL     1       1.633 -20.031 -40.120  1.00  0.00     0.002 A 
ATOM     37  C   UNL     1      -2.228 -18.920 -42.154  1.00  0.00     0.149 C 
ENDBRANCH  26  28
ENDBRANCH  20  22
ENDBRANCH   3  20
BRANCH   4  38
ATOM     38  O   UNL     1      -1.919 -11.067 -45.531  1.00  0.00    -0.494 OA
ATOM     39  C   UNL     1      -2.199 -10.788 -46.909  1.00  0.00     0.278 C 
ENDBRANCH   4  38
TORSDOF 10
ENDMDL
MODEL 5
REMARK minimizedAffinity -7.98901701
REMARK minimizedRMSD -1
REMARK SMILES C=CC(=O)Nc1cc(Nc2nccc(-c3cn(C)c4ccccc34)n2)c(OC)cc1N(C)CCN(C)C
REMARK SMILES IDX 6 1 7 2 8 3 26 4 29 5 30 6 5 7 3 8 4 9 2 11 1 12 31 13 32 14
REMARK SMILES IDX 33 15 34 16 35 17 36 18 37 19 9 20 10 22 11 23 25 24 12 25
REMARK SMILES IDX 14 26 13 27 15 28 16 29 24 30 17 31 23 32 19 33 22 34 20 35
REMARK SMILES IDX 21 36 18 37 27 38 28 39
REMARK H PARENT 5 10 9 21
ROOT
ATOM      1  C   UNL     1      -1.120  -9.007 -44.307  1.00  0.00     0.067 A 
ATOM      2  C   UNL     1      -1.030 -10.371 -43.955  1.00  0.00     0.058 A 
ATOM      3  C   UNL     1       0.196 -11.034 -43.910  1.00  0.00     0.086 A 
ATOM      4  C   UNL     1       1.337 -10.306 -44.274  1.00  0.00     0.144 A 
ATOM      5  C   UNL     1       1.275  -8.963 -44.645  1.00  0.00     0.076 A 
ATOM      6  C   UNL     1       0.039  -8.295 -44.707  1.00  0.00     0.064 A 
ENDROOT
BRANCH   1   7
ATOM      7  N   UNL     1      -2.423  -8.452 -44.277  1.00  0.00    -0.321 N 
ATOM      8  C   UNL     1      -3.274  -8.277 -45.354  1.00  0.00     0.247 C 
ATOM      9  O   UNL     1      -3.032  -8.393 -46.549  1.00  0.00    -0.270 OA
ATOM     10  H   UNL     1      -2.659  -7.952 -43.429  1.00  0.00     0.170 HD
BRANCH   8  11
ATOM     11  C   UNL     1      -4.620  -7.807 -44.894  1.00  0.00     0.064 C 
ATOM     12  C   UNL     1      -5.525  -7.344 -45.763  1.00  0.00     0.014 C 
ENDBRANCH   8  11
ENDBRANCH   1   7
BRANCH   6  13
ATOM     13  N   UNL     1      -0.062  -7.017 -45.307  1.00  0.00    -0.372 N 
ATOM     14  C   UNL     1      -0.624  -5.966 -44.447  1.00  0.00     0.143 C 
BRANCH  13  15
ATOM     15  C   UNL     1       1.175  -6.665 -46.038  1.00  0.00     0.131 C 
BRANCH  15  16
ATOM     16  C   UNL     1       1.752  -5.317 -45.551  1.00  0.00     0.105 C 
BRANCH  16  17
ATOM     17  N   UNL     1       3.090  -5.435 -44.920  1.00  0.00    -0.308 NA
ATOM     18  C   UNL     1       3.860  -6.496 -45.587  1.00  0.00     0.105 C 
ATOM     19  C   UNL     1       2.980  -5.736 -43.487  1.00  0.00     0.105 C 
ENDBRANCH  16  17
ENDBRANCH  15  16
ENDBRANCH  13  15
ENDBRANCH   6  13
BRANCH   3  20
ATOM     20  N   UNL     1       0.322 -12.383 -43.548  1.00  0.00    -0.321 N 
ATOM     21  H   UNL     1       1.044 -12.567 -42.864  1.00  0.00     0.170 HD
BRANCH  20  22
ATOM     22  C   UNL     1       0.074 -13.546 -44.277  1.00  0.00     0.227 A 
ATOM     23  N   UNL     1       0.104 -13.558 -45.621  1.00  0.00    -0.221 NA
ATOM     24  N   UNL     1      -0.128 -14.641 -43.530  1.00  0.00    -0.213 NA
ATOM     25  C   UNL     1      -0.092 -14.747 -46.223  1.00  0.00     0.117 A 
ATOM     26  C   UNL     1      -0.327 -15.819 -44.165  1.00  0.00     0.078 A 
ATOM     27  C   UNL     1      -0.323 -15.915 -45.537  1.00  0.00     0.049 A 
BRANCH  26  28
ATOM     28  C   UNL     1      -0.548 -16.970 -43.288  1.00  0.00     0.026 A 
ATOM     29  C   UNL     1      -1.750 -17.655 -43.296  1.00  0.00     0.096 A 
ATOM     30  C   UNL     1       0.279 -17.614 -42.296  1.00  0.00     0.009 A 
ATOM     31  N   UNL     1      -1.679 -18.685 -42.407  1.00  0.00    -0.350 N 
ATOM     32  C   UNL     1       1.574 -17.393 -41.763  1.00  0.00     0.011 A 
ATOM     33  C   UNL     1      -0.453 -18.697 -41.783  1.00  0.00     0.048 A 
ATOM     34  C   UNL     1       2.099 -18.258 -40.794  1.00  0.00     0.001 A 
ATOM     35  C   UNL     1       0.062 -19.567 -40.805  1.00  0.00     0.027 A 
ATOM     36  C   UNL     1       1.355 -19.335 -40.327  1.00  0.00     0.002 A 
ATOM     37  C   UNL     1      -2.758 -19.612 -42.142  1.00  0.00     0.149 C 
ENDBRANCH  26  28
ENDBRANCH  20  22
ENDBRANCH   3  20
BRANCH   4  38
ATOM     38  O   UNL     1       2.555 -10.942 -44.277  1.00  0.00    -0.494 OA
ATOM     39  C   UNL     1       3.276 -10.621 -45.474  1.00  0.00     0.278 C 
ENDBRANCH   4  38
TORSDOF 10
ENDMDL
MODEL 6
REMARK minimizedAffinity -7.94373512
REMARK minimizedRMSD -1
REMARK SMILES C=CC(=O)Nc1cc(Nc2nccc(-c3cn(C)c4ccccc34)n2)c(OC)cc1N(C)CCN(C)C
REMARK SMILES IDX 6 1 7 2 8 3 26 4 29 5 30 6 5 7 3 8 4 9 2 11 1 12 31 13 32 14
REMARK SMILES IDX 33 15 34 16 35 17 36 18 37 19 9 20 10 22 11 23 25 24 12 25
REMARK SMILES IDX 14 26 13 27 15 28 16 29 24 30 17 31 23 32 19 33 22 34 20 35
REMARK SMILES IDX 21 36 18 37 27 38 28 39
REMARK H PARENT 5 10 9 21
ROOT
ATOM      1  C   UNL     1      -1.012  -9.224 -44.494  1.00  0.00     0.067 A 
ATOM      2  C   UNL     1      -0.898 -10.590 -44.162  1.00  0.00     0.058 A 
ATOM      3  C   UNL     1       0.344 -11.217 -44.062  1.00  0.00     0.086 A 
ATOM      4  C   UNL     1       1.480 -10.446 -44.351  1.00  0.00     0.144 A 
ATOM      5  C   UNL     1       1.394  -9.099 -44.701  1.00  0.00     0.076 A 
ATOM      6  C   UNL     1       0.144  -8.469 -44.818  1.00  0.00     0.064 A 
ENDROOT
BRANCH   1   7
ATOM      7  N   UNL     1      -2.332  -8.709 -44.525  1.00  0.00    -0.321 N 
ATOM      8  C   UNL     1      -3.174  -8.652 -45.622  1.00  0.00     0.247 C 
ATOM      9  O   UNL     1      -2.912  -8.858 -46.800  1.00  0.00    -0.270 OA
ATOM     10  H   UNL     1      -2.594  -8.148 -43.724  1.00  0.00     0.170 HD
BRANCH   8  11
ATOM     11  C   UNL     1      -4.539  -8.188 -45.218  1.00  0.00     0.064 C 
ATOM     12  C   UNL     1      -5.046  -8.492 -44.017  1.00  0.00     0.014 C 
ENDBRANCH   8  11
ENDBRANCH   1   7
BRANCH   6  13
ATOM     13  N   UNL     1       0.034  -7.183 -45.399  1.00  0.00    -0.372 N 
ATOM     14  C   UNL     1      -0.734  -6.206 -44.614  1.00  0.00     0.143 C 
BRANCH  13  15
ATOM     15  C   UNL     1       1.336  -6.716 -45.922  1.00  0.00     0.131 C 
BRANCH  15  16
ATOM     16  C   UNL     1       1.824  -5.454 -45.175  1.00  0.00     0.105 C 
BRANCH  16  17
ATOM     17  N   UNL     1       3.230  -5.543 -44.710  1.00  0.00    -0.308 NA
ATOM     18  C   UNL     1       4.005  -6.379 -45.640  1.00  0.00     0.105 C 
ATOM     19  C   UNL     1       3.312  -6.108 -43.358  1.00  0.00     0.105 C 
ENDBRANCH  16  17
ENDBRANCH  15  16
ENDBRANCH  13  15
ENDBRANCH   6  13
BRANCH   3  20
ATOM     20  N   UNL     1       0.494 -12.567 -43.719  1.00  0.00    -0.321 N 
ATOM     21  H   UNL     1       1.274 -12.759 -43.104  1.00  0.00     0.170 HD
BRANCH  20  22
ATOM     22  C   UNL     1       0.171 -13.726 -44.426  1.00  0.00     0.227 A 
ATOM     23  N   UNL     1       0.373 -13.824 -45.751  1.00  0.00    -0.221 NA
ATOM     24  N   UNL     1      -0.286 -14.734 -43.668  1.00  0.00    -0.213 NA
ATOM     25  C   UNL     1       0.081 -15.008 -46.325  1.00  0.00     0.117 A 
ATOM     26  C   UNL     1      -0.574 -15.908 -44.276  1.00  0.00     0.078 A 
ATOM     27  C   UNL     1      -0.407 -16.087 -45.629  1.00  0.00     0.049 A 
BRANCH  26  28
ATOM     28  C   UNL     1      -1.075 -16.960 -43.390  1.00  0.00     0.026 A 
ATOM     29  C   UNL     1      -0.205 -17.793 -42.707  1.00  0.00     0.096 A 
ATOM     30  C   UNL     1      -2.407 -17.391 -43.039  1.00  0.00     0.009 A 
ATOM     31  N   UNL     1      -0.930 -18.660 -41.945  1.00  0.00    -0.350 N 
ATOM     32  C   UNL     1      -3.721 -17.011 -43.413  1.00  0.00     0.011 A 
ATOM     33  C   UNL     1      -2.277 -18.440 -42.116  1.00  0.00     0.048 A 
ATOM     34  C   UNL     1      -4.832 -17.644 -42.839  1.00  0.00     0.001 A 
ATOM     35  C   UNL     1      -3.385 -19.086 -41.539  1.00  0.00     0.027 A 
ATOM     36  C   UNL     1      -4.664 -18.663 -41.909  1.00  0.00     0.002 A 
ATOM     37  C   UNL     1      -0.353 -19.685 -41.102  1.00  0.00     0.149 C 
ENDBRANCH  26  28
ENDBRANCH  20  22
ENDBRANCH   3  20
BRANCH   4  38
ATOM     38  O   UNL     1       2.715 -11.045 -44.299  1.00  0.00    -0.494 OA
ATOM     39  C   UNL     1       3.181 -11.331 -45.625  1.00  0.00     0.278 C 
ENDBRANCH   4  38
TORSDOF 10
ENDMDL
MODEL 7
REMARK minimizedAffinity -7.90542603
REMARK minimizedRMSD -1
REMARK SMILES C=CC(=O)Nc1cc(Nc2nccc(-c3cn(C)c4ccccc34)n2)c(OC)cc1N(C)CCN(C)C
REMARK SMILES IDX 6 1 7 2 8 3 26 4 29 5 30 6 5 7 3 8 4 9 2 11 1 12 31 13 32 14
REMARK SMILES IDX 33 15 34 16 35 17 36 18 37 19 9 20 10 22 11 23 25 24 12 25
REMARK SMILES IDX 14 26 13 27 15 28 16 29 24 30 17 31 23 32 19 33 22 34 20 35
REMARK SMILES IDX 21 36 18 37 27 38 28 39
REMARK H PARENT 5 10 9 21
ROOT
ATOM      1  C   UNL     1      -0.890  -9.908 -43.811  1.00  0.00     0.067 A 
ATOM      2  C   UNL     1      -0.328 -11.202 -43.826  1.00  0.00     0.058 A 
ATOM      3  C   UNL     1       0.853 -11.478 -44.515  1.00  0.00     0.086 A 
ATOM      4  C   UNL     1       1.440 -10.427 -45.234  1.00  0.00     0.144 A 
ATOM      5  C   UNL     1       0.896  -9.143 -45.252  1.00  0.00     0.076 A 
ATOM      6  C   UNL     1      -0.303  -8.866 -44.572  1.00  0.00     0.064 A 
ENDROOT
BRANCH   1   7
ATOM      7  N   UNL     1      -2.072  -9.763 -43.042  1.00  0.00    -0.321 N 
ATOM      8  C   UNL     1      -3.347 -10.161 -43.400  1.00  0.00     0.247 C 
ATOM      9  O   UNL     1      -3.752 -10.549 -44.489  1.00  0.00    -0.270 OA
ATOM     10  H   UNL     1      -2.000  -9.124 -42.260  1.00  0.00     0.170 HD
BRANCH   8  11
ATOM     11  C   UNL     1      -4.299  -9.980 -42.258  1.00  0.00     0.064 C 
ATOM     12  C   UNL     1      -5.441  -9.301 -42.410  1.00  0.00     0.014 C 
ENDBRANCH   8  11
ENDBRANCH   1   7
BRANCH   6  13
ATOM     13  N   UNL     1      -0.985  -7.642 -44.778  1.00  0.00    -0.372 N 
ATOM     14  C   UNL     1      -0.130  -6.446 -44.795  1.00  0.00     0.143 C 
BRANCH  13  15
ATOM     15  C   UNL     1      -1.969  -7.752 -45.877  1.00  0.00     0.131 C 
BRANCH  15  16
ATOM     16  C   UNL     1      -3.007  -6.609 -45.819  1.00  0.00     0.105 C 
BRANCH  16  17
ATOM     17  N   UNL     1      -4.123  -6.865 -44.875  1.00  0.00    -0.308 NA
ATOM     18  C   UNL     1      -5.294  -7.357 -45.616  1.00  0.00     0.105 C 
ATOM     19  C   UNL     1      -4.486  -5.651 -44.135  1.00  0.00     0.105 C 
ENDBRANCH  16  17
ENDBRANCH  15  16
ENDBRANCH  13  15
ENDBRANCH   6  13
BRANCH   3  20
ATOM     20  N   UNL     1       1.446 -12.747 -44.538  1.00  0.00    -0.321 N 
ATOM     21  H   UNL     1       2.285 -12.807 -45.100  1.00  0.00     0.170 HD
BRANCH  20  22
ATOM     22  C   UNL     1       0.880 -14.017 -44.421  1.00  0.00     0.227 A 
ATOM     23  N   UNL     1      -0.139 -14.411 -45.203  1.00  0.00    -0.221 NA
ATOM     24  N   UNL     1       1.476 -14.814 -43.522  1.00  0.00    -0.213 NA
ATOM     25  C   UNL     1      -0.572 -15.677 -45.047  1.00  0.00     0.117 A 
ATOM     26  C   UNL     1       1.015 -16.079 -43.386  1.00  0.00     0.078 A 
ATOM     27  C   UNL     1      -0.032 -16.556 -44.139  1.00  0.00     0.049 A 
BRANCH  26  28
ATOM     28  C   UNL     1       1.708 -16.889 -42.383  1.00  0.00     0.026 A 
ATOM     29  C   UNL     1       1.003 -17.677 -41.490  1.00  0.00     0.096 A 
ATOM     30  C   UNL     1       3.104 -17.062 -42.061  1.00  0.00     0.009 A 
ATOM     31  N   UNL     1       1.886 -18.336 -40.688  1.00  0.00    -0.350 N 
ATOM     32  C   UNL     1       4.324 -16.522 -42.540  1.00  0.00     0.011 A 
ATOM     33  C   UNL     1       3.178 -17.992 -41.012  1.00  0.00     0.048 A 
ATOM     34  C   UNL     1       5.547 -16.945 -42.001  1.00  0.00     0.001 A 
ATOM     35  C   UNL     1       4.399 -18.418 -40.459  1.00  0.00     0.027 A 
ATOM     36  C   UNL     1       5.582 -17.886 -40.979  1.00  0.00     0.002 A 
ATOM     37  C   UNL     1       1.507 -19.244 -39.627  1.00  0.00     0.149 C 
ENDBRANCH  26  28
ENDBRANCH  20  22
ENDBRANCH   3  20
BRANCH   4  38
ATOM     38  O   UNL     1       2.583 -10.676 -45.954  1.00  0.00    -0.494 OA
ATOM     39  C   UNL     1       3.645  -9.824 -45.504  1.00  0.00     0.278 C 
ENDBRANCH   4  38
TORSDOF 10
ENDMDL
MODEL 8
REMARK minimizedAffinity -7.87577963
REMARK minimizedRMSD -1
REMARK SMILES C=CC(=O)Nc1cc(Nc2nccc(-c3cn(C)c4ccccc34)n2)c(OC)cc1N(C)CCN(C)C
REMARK SMILES IDX 6 1 7 2 8 3 26 4 29 5 30 6 5 7 3 8 4 9 2 11 1 12 31 13 32 14
REMARK SMILES IDX 33 15 34 16 35 17 36 18 37 19 9 20 10 22 11 23 25 24 12 25
REMARK SMILES IDX 14 26 13 27 15 28 16 29 24 30 17 31 23 32 19 33 22 34 20 35
REMARK SMILES IDX 21 36 18 37 27 38 28 39
REMARK H PARENT 5 10 9 21
ROOT
ATOM      1  C   UNL     1       4.117 -11.312 -45.344  1.00  0.00     0.067 A 
ATOM      2  C   UNL     1       3.270 -12.318 -44.830  1.00  0.00     0.058 A 
ATOM      3  C   UNL     1       1.921 -12.075 -44.574  1.00  0.00     0.086 A 
ATOM      4  C   UNL     1       1.444 -10.777 -44.804  1.00  0.00     0.144 A 
ATOM      5  C   UNL     1       2.263  -9.760 -45.293  1.00  0.00     0.076 A 
ATOM      6  C   UNL     1       3.627  -9.996 -45.536  1.00  0.00     0.064 A 
ENDROOT
BRANCH   1   7
ATOM      7  N   UNL     1       5.456 -11.707 -45.590  1.00  0.00    -0.321 N 
ATOM      8  C   UNL     1       6.421 -11.999 -44.643  1.00  0.00     0.247 C 
ATOM      9  O   UNL     1       6.387 -11.816 -43.432  1.00  0.00    -0.270 OA
ATOM     10  H   UNL     1       5.782 -11.554 -46.536  1.00  0.00     0.170 HD
BRANCH   8  11
ATOM     11  C   UNL     1       7.660 -12.529 -45.296  1.00  0.00     0.064 C 
ATOM     12  C   UNL     1       8.433 -13.432 -44.682  1.00  0.00     0.014 C 
ENDBRANCH   8  11
ENDBRANCH   1   7
BRANCH   6  13
ATOM     13  N   UNL     1       4.511  -8.922 -45.800  1.00  0.00    -0.372 N 
ATOM     14  C   UNL     1       4.627  -8.542 -47.216  1.00  0.00     0.143 C 
BRANCH  13  15
ATOM     15  C   UNL     1       4.310  -7.812 -44.845  1.00  0.00     0.131 C 
BRANCH  15  16
ATOM     16  C   UNL     1       5.652  -7.150 -44.458  1.00  0.00     0.105 C 
BRANCH  16  17
ATOM     17  N   UNL     1       5.941  -7.195 -43.004  1.00  0.00    -0.308 NA
ATOM     18  C   UNL     1       6.750  -8.385 -42.697  1.00  0.00     0.105 C 
ATOM     19  C   UNL     1       4.705  -7.226 -42.213  1.00  0.00     0.105 C 
ENDBRANCH  16  17
ENDBRANCH  15  16
ENDBRANCH  13  15
ENDBRANCH   6  13
BRANCH   3  20
ATOM     20  N   UNL     1       1.049 -13.055 -44.079  1.00  0.00    -0.321 N 
ATOM     21  H   UNL     1       1.203 -13.301 -43.110  1.00  0.00     0.170 HD
BRANCH  20  22
ATOM     22  C   UNL     1       0.410 -14.114 -44.726  1.00  0.00     0.227 A 
ATOM     23  N   UNL     1       0.368 -14.201 -46.066  1.00  0.00    -0.221 NA
ATOM     24  N   UNL     1      -0.089 -15.049 -43.905  1.00  0.00    -0.213 NA
ATOM     25  C   UNL     1      -0.223 -15.294 -46.586  1.00  0.00     0.117 A 
ATOM     26  C   UNL     1      -0.681 -16.133 -44.458  1.00  0.00     0.078 A 
ATOM     27  C   UNL     1      -0.776 -16.293 -45.821  1.00  0.00     0.049 A 
BRANCH  26  28
ATOM     28  C   UNL     1      -1.210 -17.109 -43.504  1.00  0.00     0.026 A 
ATOM     29  C   UNL     1      -0.366 -17.963 -42.815  1.00  0.00     0.096 A 
ATOM     30  C   UNL     1      -2.550 -17.436 -43.083  1.00  0.00     0.009 A 
ATOM     31  N   UNL     1      -1.111 -18.746 -41.985  1.00  0.00    -0.350 N 
ATOM     32  C   UNL     1      -3.852 -16.991 -43.425  1.00  0.00     0.011 A 
ATOM     33  C   UNL     1      -2.448 -18.448 -42.115  1.00  0.00     0.048 A 
ATOM     34  C   UNL     1      -4.976 -17.525 -42.779  1.00  0.00     0.001 A 
ATOM     35  C   UNL     1      -3.570 -18.995 -41.466  1.00  0.00     0.027 A 
ATOM     36  C   UNL     1      -4.834 -18.508 -41.807  1.00  0.00     0.002 A 
ATOM     37  C   UNL     1      -0.566 -19.766 -41.115  1.00  0.00     0.149 C 
ENDBRANCH  26  28
ENDBRANCH  20  22
ENDBRANCH   3  20
BRANCH   4  38
ATOM     38  O   UNL     1       0.128 -10.497 -44.525  1.00  0.00    -0.494 OA
ATOM     39  C   UNL     1      -0.306  -9.361 -45.285  1.00  0.00     0.278 C 
ENDBRANCH   4  38
TORSDOF 10
ENDMDL
MODEL 9
REMARK minimizedAffinity -7.86289167
REMARK minimizedRMSD -1
REMARK SMILES C=CC(=O)Nc1cc(Nc2nccc(-c3cn(C)c4ccccc34)n2)c(OC)cc1N(C)CCN(C)C
REMARK SMILES IDX 6 1 7 2 8 3 26 4 29 5 30 6 5 7 3 8 4 9 2 11 1 12 31 13 32 14
REMARK SMILES IDX 33 15 34 16 35 17 36 18 37 19 9 20 10 22 11 23 25 24 12 25
REMARK SMILES IDX 14 26 13 27 15 28 16 29 24 30 17 31 23 32 19 33 22 34 20 35
REMARK SMILES IDX 21 36 18 37 27 38 28 39
REMARK H PARENT 5 10 9 21
ROOT
ATOM      1  C   UNL     1       2.976  -9.694 -45.221  1.00  0.00     0.067 A 
ATOM      2  C   UNL     1       2.500 -10.942 -44.766  1.00  0.00     0.058 A 
ATOM      3  C   UNL     1       1.200 -11.097 -44.287  1.00  0.00     0.086 A 
ATOM      4  C   UNL     1       0.392  -9.952 -44.229  1.00  0.00     0.144 A 
ATOM      5  C   UNL     1       0.844  -8.703 -44.655  1.00  0.00     0.076 A 
ATOM      6  C   UNL     1       2.159  -8.540 -45.123  1.00  0.00     0.064 A 
ENDROOT
BRANCH   1   7
ATOM      7  N   UNL     1       4.304  -9.688 -45.715  1.00  0.00    -0.321 N 
ATOM      8  C   UNL     1       5.313 -10.576 -45.389  1.00  0.00     0.247 C 
ATOM      9  O   UNL     1       5.334 -11.421 -44.502  1.00  0.00    -0.270 OA
ATOM     10  H   UNL     1       4.586  -8.835 -46.183  1.00  0.00     0.170 HD
BRANCH   8  11
ATOM     11  C   UNL     1       6.524 -10.337 -46.237  1.00  0.00     0.064 C 
ATOM     12  C   UNL     1       6.660  -9.211 -46.947  1.00  0.00     0.014 C 
ENDBRANCH   8  11
ENDBRANCH   1   7
BRANCH   6  13
ATOM     13  N   UNL     1       2.697  -7.247 -45.329  1.00  0.00    -0.372 N 
ATOM     14  C   UNL     1       1.858  -6.340 -46.125  1.00  0.00     0.143 C 
BRANCH  13  15
ATOM     15  C   UNL     1       3.249  -6.688 -44.075  1.00  0.00     0.131 C 
BRANCH  15  16
ATOM     16  C   UNL     1       4.789  -6.580 -44.137  1.00  0.00     0.105 C 
BRANCH  16  17
ATOM     17  N   UNL     1       5.461  -6.916 -42.858  1.00  0.00    -0.308 NA
ATOM     18  C   UNL     1       6.377  -8.048 -43.063  1.00  0.00     0.105 C 
ATOM     19  C   UNL     1       4.486  -7.256 -41.814  1.00  0.00     0.105 C 
ENDBRANCH  16  17
ENDBRANCH  15  16
ENDBRANCH  13  15
ENDBRANCH   6  13
BRANCH   3  20
ATOM     20  N   UNL     1       0.691 -12.325 -43.842  1.00  0.00    -0.321 N 
ATOM     21  H   UNL     1       1.002 -12.598 -42.919  1.00  0.00     0.170 HD
BRANCH  20  22
ATOM     22  C   UNL     1       0.314 -13.465 -44.555  1.00  0.00     0.227 A 
ATOM     23  N   UNL     1       0.399 -13.521 -45.894  1.00  0.00    -0.221 NA
ATOM     24  N   UNL     1      -0.070 -14.498 -43.792  1.00  0.00    -0.213 NA
ATOM     25  C   UNL     1       0.064 -14.688 -46.477  1.00  0.00     0.117 A 
ATOM     26  C   UNL     1      -0.405 -15.656 -44.408  1.00  0.00     0.078 A 
ATOM     27  C   UNL     1      -0.356 -15.792 -45.775  1.00  0.00     0.049 A 
BRANCH  26  28
ATOM     28  C   UNL     1      -0.820 -16.739 -43.514  1.00  0.00     0.026 A 
ATOM     29  C   UNL     1       0.112 -17.493 -42.823  1.00  0.00     0.096 A 
ATOM     30  C   UNL     1      -2.114 -17.273 -43.163  1.00  0.00     0.009 A 
ATOM     31  N   UNL     1      -0.541 -18.410 -42.056  1.00  0.00    -0.350 N 
ATOM     32  C   UNL     1      -3.453 -17.004 -43.542  1.00  0.00     0.011 A 
ATOM     33  C   UNL     1      -1.901 -18.302 -42.232  1.00  0.00     0.048 A 
ATOM     34  C   UNL     1      -4.511 -17.721 -42.966  1.00  0.00     0.001 A 
ATOM     35  C   UNL     1      -2.955 -19.031 -41.652  1.00  0.00     0.027 A 
ATOM     36  C   UNL     1      -4.264 -18.716 -42.027  1.00  0.00     0.002 A 
ATOM     37  C   UNL     1       0.114 -19.379 -41.204  1.00  0.00     0.149 C 
ENDBRANCH  26  28
ENDBRANCH  20  22
ENDBRANCH   3  20
BRANCH   4  38
ATOM     38  O   UNL     1      -0.881 -10.065 -43.726  1.00  0.00    -0.494 OA
ATOM     39  C   UNL     1      -1.561  -8.807 -43.818  1.00  0.00     0.278 C 
ENDBRANCH   4  38
TORSDOF 10
ENDMDL
MODEL 10
REMARK minimizedAffinity -7.78484869
REMARK minimizedRMSD -1
REMARK SMILES C=CC(=O)Nc1cc(Nc2nccc(-c3cn(C)c4ccccc34)n2)c(OC)cc1N(C)CCN(C)C
REMARK SMILES IDX 6 1 7 2 8 3 26 4 29 5 30 6 5 7 3 8 4 9 2 11 1 12 31 13 32 14
REMARK SMILES IDX 33 15 34 16 35 17 36 18 37 19 9 20 10 22 11 23 25 24 12 25
REMARK SMILES IDX 14 26 13 27 15 28 16 29 24 30 17 31 23 32 19 33 22 34 20 35
REMARK SMILES IDX 21 36 18 37 27 38 28 39
REMARK H PARENT 5 10 9 21
ROOT
ATOM      1  C   UNL     1       0.650 -10.802 -45.410  1.00  0.00     0.067 A 
ATOM      2  C   UNL     1       2.027 -10.549 -45.591  1.00  0.00     0.058 A 
ATOM      3  C   UNL     1       2.545  -9.255 -45.538  1.00  0.00     0.086 A 
ATOM      4  C   UNL     1       1.637  -8.204 -45.344  1.00  0.00     0.144 A 
ATOM      5  C   UNL     1       0.270  -8.424 -45.182  1.00  0.00     0.076 A 
ATOM      6  C   UNL     1      -0.258  -9.725 -45.251  1.00  0.00     0.064 A 
ENDROOT
BRANCH   1   7
ATOM      7  N   UNL     1       0.267 -12.165 -45.453  1.00  0.00    -0.321 N 
ATOM      8  C   UNL     1       0.236 -12.983 -46.568  1.00  0.00     0.247 C 
ATOM      9  O   UNL     1       0.355 -12.675 -47.748  1.00  0.00    -0.270 OA
ATOM     10  H   UNL     1      -0.223 -12.501 -44.633  1.00  0.00     0.170 HD
BRANCH   8  11
ATOM     11  C   UNL     1      -0.069 -14.397 -46.180  1.00  0.00     0.064 C 
ATOM     12  C   UNL     1      -0.334 -15.326 -47.105  1.00  0.00     0.014 C 
ENDBRANCH   8  11
ENDBRANCH   1   7
BRANCH   6  13
ATOM     13  N   UNL     1      -1.656  -9.934 -45.327  1.00  0.00    -0.372 N 
ATOM     14  C   UNL     1      -2.310 -10.260 -44.052  1.00  0.00     0.143 C 
BRANCH  13  15
ATOM     15  C   UNL     1      -2.313  -8.893 -46.146  1.00  0.00     0.131 C 
BRANCH  15  16
ATOM     16  C   UNL     1      -3.523  -8.276 -45.409  1.00  0.00     0.105 C 
BRANCH  16  17
ATOM     17  N   UNL     1      -3.351  -6.840 -45.079  1.00  0.00    -0.308 NA
ATOM     18  C   UNL     1      -2.489  -6.202 -46.085  1.00  0.00     0.105 C 
ATOM     19  C   UNL     1      -2.763  -6.664 -43.746  1.00  0.00     0.105 C 
ENDBRANCH  16  17
ENDBRANCH  15  16
ENDBRANCH  13  15
ENDBRANCH   6  13
BRANCH   3  20
ATOM     20  N   UNL     1       3.908  -8.971 -45.697  1.00  0.00    -0.321 N 
ATOM     21  H   UNL     1       4.307  -9.304 -46.566  1.00  0.00     0.170 HD
BRANCH  20  22
ATOM     22  C   UNL     1       4.924  -8.830 -44.751  1.00  0.00     0.227 A 
ATOM     23  N   UNL     1       5.061  -7.710 -44.023  1.00  0.00    -0.221 NA
ATOM     24  N   UNL     1       5.693  -9.917 -44.592  1.00  0.00    -0.213 NA
ATOM     25  C   UNL     1       6.039  -7.701 -43.097  1.00  0.00     0.117 A 
ATOM     26  C   UNL     1       6.670  -9.876 -43.656  1.00  0.00     0.078 A 
ATOM     27  C   UNL     1       6.884  -8.763 -42.878  1.00  0.00     0.049 A 
BRANCH  26  28
ATOM     28  C   UNL     1       7.474 -11.094 -43.542  1.00  0.00     0.026 A 
ATOM     29  C   UNL     1       7.970 -11.731 -44.666  1.00  0.00     0.096 A 
ATOM     30  C   UNL     1       7.901 -11.879 -42.409  1.00  0.00     0.009 A 
ATOM     31  N   UNL     1       8.694 -12.817 -44.275  1.00  0.00    -0.350 N 
ATOM     32  C   UNL     1       7.702 -11.818 -41.007  1.00  0.00     0.011 A 
ATOM     33  C   UNL     1       8.681 -12.936 -42.905  1.00  0.00     0.048 A 
ATOM     34  C   UNL     1       8.305 -12.762 -40.163  1.00  0.00     0.001 A 
ATOM     35  C   UNL     1       9.285 -13.892 -42.068  1.00  0.00     0.027 A 
ATOM     36  C   UNL     1       9.092 -13.780 -40.688  1.00  0.00     0.002 A 
ATOM     37  C   UNL     1       9.355 -13.730 -45.184  1.00  0.00     0.149 C 
ENDBRANCH  26  28
ENDBRANCH  20  22
ENDBRANCH   3  20
BRANCH   4  38
ATOM     38  O   UNL     1       2.112  -6.915 -45.327  1.00  0.00    -0.494 OA
ATOM     39  C   UNL     1       1.048  -6.002 -45.027  1.00  0.00     0.278 C 
ENDBRANCH   4  38
TORSDOF 10
ENDMDL
MODEL 11
REMARK minimizedAffinity -7.77598143
REMARK minimizedRMSD -1
REMARK SMILES C=CC(=O)Nc1cc(Nc2nccc(-c3cn(C)c4ccccc34)n2)c(OC)cc1N(C)CCN(C)C
REMARK SMILES IDX 6 1 7 2 8 3 26 4 29 5 30 6 5 7 3 8 4 9 2 11 1 12 31 13 32 14
REMARK SMILES IDX 33 15 34 16 35 17 36 18 37 19 9 20 10 22 11 23 25 24 12 25
REMARK SMILES IDX 14 26 13 27 15 28 16 29 24 30 17 31 23 32 19 33 22 34 20 35
REMARK SMILES IDX 21 36 18 37 27 38 28 39
REMARK H PARENT 5 10 9 21
ROOT
ATOM      1  C   UNL     1       6.860 -14.683 -42.454  1.00  0.00     0.067 A 
ATOM      2  C   UNL     1       5.602 -14.407 -43.029  1.00  0.00     0.058 A 
ATOM      3  C   UNL     1       5.197 -15.005 -44.222  1.00  0.00     0.086 A 
ATOM      4  C   UNL     1       6.109 -15.861 -44.857  1.00  0.00     0.144 A 
ATOM      5  C   UNL     1       7.366 -16.136 -44.320  1.00  0.00     0.076 A 
ATOM      6  C   UNL     1       7.784 -15.522 -43.127  1.00  0.00     0.064 A 
ENDROOT
BRANCH   1   7
ATOM      7  N   UNL     1       7.126 -14.034 -41.223  1.00  0.00    -0.321 N 
ATOM      8  C   UNL     1       7.216 -12.670 -41.008  1.00  0.00     0.247 C 
ATOM      9  O   UNL     1       7.262 -11.766 -41.833  1.00  0.00    -0.270 OA
ATOM     10  H   UNL     1       7.487 -14.632 -40.490  1.00  0.00     0.170 HD
BRANCH   8  11
ATOM     11  C   UNL     1       7.351 -12.372 -39.546  1.00  0.00     0.064 C 
ATOM     12  C   UNL     1       7.614 -13.342 -38.664  1.00  0.00     0.014 C 
ENDBRANCH   8  11
ENDBRANCH   1   7
BRANCH   6  13
ATOM     13  N   UNL     1       9.132 -15.606 -42.704  1.00  0.00    -0.372 N 
ATOM     14  C   UNL     1       9.639 -16.971 -42.501  1.00  0.00     0.143 C 
BRANCH  13  15
ATOM     15  C   UNL     1      10.000 -14.701 -43.489  1.00  0.00     0.131 C 
BRANCH  15  16
ATOM     16  C   UNL     1      10.826 -13.774 -42.570  1.00  0.00     0.105 C 
BRANCH  16  17
ATOM     17  N   UNL     1      12.271 -14.109 -42.529  1.00  0.00    -0.308 NA
ATOM     18  C   UNL     1      12.647 -14.827 -43.756  1.00  0.00     0.105 C 
ATOM     19  C   UNL     1      12.596 -14.933 -41.359  1.00  0.00     0.105 C 
ENDBRANCH  16  17
ENDBRANCH  15  16
ENDBRANCH  13  15
ENDBRANCH   6  13
BRANCH   3  20
ATOM     20  N   UNL     1       3.948 -14.766 -44.812  1.00  0.00    -0.321 N 
ATOM     21  H   UNL     1       3.992 -14.307 -45.713  1.00  0.00     0.170 HD
BRANCH  20  22
ATOM     22  C   UNL     1       2.701 -14.524 -44.234  1.00  0.00     0.227 A 
ATOM     23  N   UNL     1       2.150 -13.299 -44.227  1.00  0.00    -0.221 NA
ATOM     24  N   UNL     1       2.087 -15.616 -43.755  1.00  0.00    -0.213 NA
ATOM     25  C   UNL     1       0.918 -13.188 -43.695  1.00  0.00     0.117 A 
ATOM     26  C   UNL     1       0.852 -15.471 -43.223  1.00  0.00     0.078 A 
ATOM     27  C   UNL     1       0.223 -14.249 -43.167  1.00  0.00     0.049 A 
BRANCH  26  28
ATOM     28  C   UNL     1       0.244 -16.702 -42.714  1.00  0.00     0.026 A 
ATOM     29  C   UNL     1       0.977 -17.600 -41.956  1.00  0.00     0.096 A 
ATOM     30  C   UNL     1      -1.076 -17.268 -42.848  1.00  0.00     0.009 A 
ATOM     31  N   UNL     1       0.170 -18.638 -41.599  1.00  0.00    -0.350 N 
ATOM     32  C   UNL     1      -2.268 -16.899 -43.521  1.00  0.00     0.011 A 
ATOM     33  C   UNL     1      -1.092 -18.467 -42.118  1.00  0.00     0.048 A 
ATOM     34  C   UNL     1      -3.418 -17.694 -43.414  1.00  0.00     0.001 A 
ATOM     35  C   UNL     1      -2.238 -19.275 -42.010  1.00  0.00     0.027 A 
ATOM     36  C   UNL     1      -3.403 -18.863 -42.662  1.00  0.00     0.002 A 
ATOM     37  C   UNL     1       0.600 -19.773 -40.809  1.00  0.00     0.149 C 
ENDBRANCH  26  28
ENDBRANCH  20  22
ENDBRANCH   3  20
BRANCH   4  38
ATOM     38  O   UNL     1       5.754 -16.435 -46.053  1.00  0.00    -0.494 OA
ATOM     39  C   UNL     1       5.721 -17.862 -45.924  1.00  0.00     0.278 C 
ENDBRANCH   4  38
TORSDOF 10
ENDMDL
MODEL 12
REMARK minimizedAffinity -7.61738491
REMARK minimizedRMSD -1
REMARK SMILES C=CC(=O)Nc1cc(Nc2nccc(-c3cn(C)c4ccccc34)n2)c(OC)cc1N(C)CCN(C)C
REMARK SMILES IDX 6 1 7 2 8 3 26 4 29 5 30 6 5 7 3 8 4 9 2 11 1 12 31 13 32 14
REMARK SMILES IDX 33 15 34 16 35 17 36 18 37 19 9 20 10 22 11 23 25 24 12 25
REMARK SMILES IDX 14 26 13 27 15 28 16 29 24 30 17 31 23 32 19 33 22 34 20 35
REMARK SMILES IDX 21 36 18 37 27 38 28 39
REMARK H PARENT 5 10 9 21
ROOT
ATOM      1  C   UNL     1       0.161  -7.620 -44.817  1.00  0.00     0.067 A 
ATOM      2  C   UNL     1       0.639  -8.903 -44.479  1.00  0.00     0.058 A 
ATOM      3  C   UNL     1      -0.219  -9.998 -44.375  1.00  0.00     0.086 A 
ATOM      4  C   UNL     1      -1.587  -9.767 -44.575  1.00  0.00     0.144 A 
ATOM      5  C   UNL     1      -2.089  -8.505 -44.891  1.00  0.00     0.076 A 
ATOM      6  C   UNL     1      -1.230  -7.396 -44.981  1.00  0.00     0.064 A 
ENDROOT
BRANCH   1   7
ATOM      7  N   UNL     1       1.147  -6.607 -44.923  1.00  0.00    -0.321 N 
ATOM      8  C   UNL     1       2.071  -6.454 -45.941  1.00  0.00     0.247 C 
ATOM      9  O   UNL     1       2.348  -7.229 -46.848  1.00  0.00    -0.270 OA
ATOM     10  H   UNL     1       1.318  -6.083 -44.074  1.00  0.00     0.170 HD
BRANCH   8  11
ATOM     11  C   UNL     1       2.834  -5.176 -45.775  1.00  0.00     0.064 C 
ATOM     12  C   UNL     1       4.063  -5.168 -45.248  1.00  0.00     0.014 C 
ENDBRANCH   8  11
ENDBRANCH   1   7
BRANCH   6  13
ATOM     13  N   UNL     1      -1.751  -6.083 -45.063  1.00  0.00    -0.372 N 
ATOM     14  C   UNL     1      -2.071  -5.621 -46.421  1.00  0.00     0.143 C 
BRANCH  13  15
ATOM     15  C   UNL     1      -2.790  -5.851 -44.037  1.00  0.00     0.131 C 
BRANCH  15  16
ATOM     16  C   UNL     1      -4.098  -5.322 -44.668  1.00  0.00     0.105 C 
BRANCH  16  17
ATOM     17  N   UNL     1      -5.271  -6.199 -44.432  1.00  0.00    -0.308 NA
ATOM     18  C   UNL     1      -5.115  -6.897 -43.146  1.00  0.00     0.105 C 
ATOM     19  C   UNL     1      -5.427  -7.184 -45.509  1.00  0.00     0.105 C 
ENDBRANCH  16  17
ENDBRANCH  15  16
ENDBRANCH  13  15
ENDBRANCH   6  13
BRANCH   3  20
ATOM     20  N   UNL     1       0.225 -11.289 -44.057  1.00  0.00    -0.321 N 
ATOM     21  H   UNL     1       1.065 -11.316 -43.493  1.00  0.00     0.170 HD
BRANCH  20  22
ATOM     22  C   UNL     1       0.104 -12.491 -44.756  1.00  0.00     0.227 A 
ATOM     23  N   UNL     1       0.120 -12.531 -46.099  1.00  0.00    -0.221 NA
ATOM     24  N   UNL     1       0.037 -13.583 -43.982  1.00  0.00    -0.213 NA
ATOM     25  C   UNL     1       0.054 -13.749 -46.672  1.00  0.00     0.117 A 
ATOM     26  C   UNL     1      -0.034 -14.791 -44.587  1.00  0.00     0.078 A 
ATOM     27  C   UNL     1      -0.034 -14.918 -45.957  1.00  0.00     0.049 A 
BRANCH  26  28
ATOM     28  C   UNL     1      -0.111 -15.938 -43.681  1.00  0.00     0.026 A 
ATOM     29  C   UNL     1       0.982 -16.328 -42.926  1.00  0.00     0.096 A 
ATOM     30  C   UNL     1      -1.169 -16.869 -43.373  1.00  0.00     0.009 A 
ATOM     31  N   UNL     1       0.632 -17.400 -42.162  1.00  0.00    -0.350 N 
ATOM     32  C   UNL     1      -2.500 -17.069 -43.819  1.00  0.00     0.011 A 
ATOM     33  C   UNL     1      -0.675 -17.755 -42.401  1.00  0.00     0.048 A 
ATOM     34  C   UNL     1      -3.287 -18.090 -43.269  1.00  0.00     0.001 A 
ATOM     35  C   UNL     1      -1.454 -18.787 -41.848  1.00  0.00     0.027 A 
ATOM     36  C   UNL     1      -2.772 -18.932 -42.291  1.00  0.00     0.002 A 
ATOM     37  C   UNL     1       1.527 -18.082 -41.252  1.00  0.00     0.149 C 
ENDBRANCH  26  28
ENDBRANCH  20  22
ENDBRANCH   3  20
BRANCH   4  38
ATOM     38  O   UNL     1      -2.462 -10.818 -44.442  1.00  0.00    -0.494 OA
ATOM     39  C   UNL     1      -3.775 -10.331 -44.137  1.00  0.00     0.278 C 
ENDBRANCH   4  38
TORSDOF 10
ENDMDL
MODEL 13
REMARK minimizedAffinity -7.60043192
REMARK minimizedRMSD -1
REMARK SMILES C=CC(=O)Nc1cc(Nc2nccc(-c3cn(C)c4ccccc34)n2)c(OC)cc1N(C)CCN(C)C
REMARK SMILES IDX 6 1 7 2 8 3 26 4 29 5 30 6 5 7 3 8 4 9 2 11 1 12 31 13 32 14
REMARK SMILES IDX 33 15 34 16 35 17 36 18 37 19 9 20 10 22 11 23 25 24 12 25
REMARK SMILES IDX 14 26 13 27 15 28 16 29 24 30 17 31 23 32 19 33 22 34 20 35
REMARK SMILES IDX 21 36 18 37 27 38 28 39
REMARK H PARENT 5 10 9 21
ROOT
ATOM      1  C   UNL     1       2.362  -9.660 -45.322  1.00  0.00     0.067 A 
ATOM      2  C   UNL     1       2.034 -10.946 -44.842  1.00  0.00     0.058 A 
ATOM      3  C   UNL     1       0.808 -11.207 -44.231  1.00  0.00     0.086 A 
ATOM      4  C   UNL     1      -0.074 -10.128 -44.068  1.00  0.00     0.144 A 
ATOM      5  C   UNL     1       0.233  -8.844 -44.515  1.00  0.00     0.076 A 
ATOM      6  C   UNL     1       1.475  -8.574 -45.117  1.00  0.00     0.064 A 
ENDROOT
BRANCH   1   7
ATOM      7  N   UNL     1       3.626  -9.546 -45.952  1.00  0.00    -0.321 N 
ATOM      8  C   UNL     1       4.866  -9.618 -45.342  1.00  0.00     0.247 C 
ATOM      9  O   UNL     1       5.133  -9.615 -44.147  1.00  0.00    -0.270 OA
ATOM     10  H   UNL     1       3.606  -9.172 -46.893  1.00  0.00     0.170 HD
BRANCH   8  11
ATOM     11  C   UNL     1       5.960  -9.611 -46.365  1.00  0.00     0.064 C 
ATOM     12  C   UNL     1       7.230  -9.376 -46.017  1.00  0.00     0.014 C 
ENDBRANCH   8  11
ENDBRANCH   1   7
BRANCH   6  13
ATOM     13  N   UNL     1       1.888  -7.241 -45.353  1.00  0.00    -0.372 N 
ATOM     14  C   UNL     1       0.825  -6.324 -45.787  1.00  0.00     0.143 C 
BRANCH  13  15
ATOM     15  C   UNL     1       2.767  -6.750 -44.270  1.00  0.00     0.131 C 
BRANCH  15  16
ATOM     16  C   UNL     1       3.778  -5.704 -44.795  1.00  0.00     0.105 C 
BRANCH  16  17
ATOM     17  N   UNL     1       4.771  -6.262 -45.745  1.00  0.00    -0.308 NA
ATOM     18  C   UNL     1       6.129  -5.899 -45.310  1.00  0.00     0.105 C 
ATOM     19  C   UNL     1       4.545  -5.766 -47.108  1.00  0.00     0.105 C 
ENDBRANCH  16  17
ENDBRANCH  15  16
ENDBRANCH  13  15
ENDBRANCH   6  13
BRANCH   3  20
ATOM     20  N   UNL     1       0.444 -12.475 -43.759  1.00  0.00    -0.321 N 
ATOM     21  H   UNL     1       0.852 -12.723 -42.867  1.00  0.00     0.170 HD
BRANCH  20  22
ATOM     22  C   UNL     1       0.108 -13.641 -44.449  1.00  0.00     0.227 A 
ATOM     23  N   UNL     1       0.065 -13.680 -45.791  1.00  0.00    -0.221 NA
ATOM     24  N   UNL     1      -0.098 -14.711 -43.668  1.00  0.00    -0.213 NA
ATOM     25  C   UNL     1      -0.213 -14.870 -46.357  1.00  0.00     0.117 A 
ATOM     26  C   UNL     1      -0.381 -15.892 -44.267  1.00  0.00     0.078 A 
ATOM     27  C   UNL     1      -0.455 -16.014 -45.635  1.00  0.00     0.049 A 
BRANCH  26  28
ATOM     28  C   UNL     1      -0.601 -17.015 -43.355  1.00  0.00     0.026 A 
ATOM     29  C   UNL     1      -1.802 -17.705 -43.347  1.00  0.00     0.096 A 
ATOM     30  C   UNL     1       0.223 -17.626 -42.340  1.00  0.00     0.009 A 
ATOM     31  N   UNL     1      -1.731 -18.706 -42.427  1.00  0.00    -0.350 N 
ATOM     32  C   UNL     1       1.515 -17.384 -41.809  1.00  0.00     0.011 A 
ATOM     33  C   UNL     1      -0.508 -18.695 -41.797  1.00  0.00     0.048 A 
ATOM     34  C   UNL     1       2.039 -18.216 -40.811  1.00  0.00     0.001 A 
ATOM     35  C   UNL     1       0.006 -19.532 -40.790  1.00  0.00     0.027 A 
ATOM     36  C   UNL     1       1.296 -19.281 -40.314  1.00  0.00     0.002 A 
ATOM     37  C   UNL     1      -2.808 -19.628 -42.136  1.00  0.00     0.149 C 
ENDBRANCH  26  28
ENDBRANCH  20  22
ENDBRANCH   3  20
BRANCH   4  38
ATOM     38  O   UNL     1      -1.274 -10.345 -43.435  1.00  0.00    -0.494 OA
ATOM     39  C   UNL     1      -2.138  -9.216 -43.617  1.00  0.00     0.278 C 
ENDBRANCH   4  38
TORSDOF 10
ENDMDL
MODEL 14
REMARK minimizedAffinity -7.55715561
REMARK minimizedRMSD -1
REMARK SMILES C=CC(=O)Nc1cc(Nc2nccc(-c3cn(C)c4ccccc34)n2)c(OC)cc1N(C)CCN(C)C
REMARK SMILES IDX 6 1 7 2 8 3 26 4 29 5 30 6 5 7 3 8 4 9 2 11 1 12 31 13 32 14
REMARK SMILES IDX 33 15 34 16 35 17 36 18 37 19 9 20 10 22 11 23 25 24 12 25
REMARK SMILES IDX 14 26 13 27 15 28 16 29 24 30 17 31 23 32 19 33 22 34 20 35
REMARK SMILES IDX 21 36 18 37 27 38 28 39
REMARK H PARENT 5 10 9 21
ROOT
ATOM      1  C   UNL     1       7.346 -13.477 -41.772  1.00  0.00     0.067 A 
ATOM      2  C   UNL     1       7.537 -12.244 -42.434  1.00  0.00     0.058 A 
ATOM      3  C   UNL     1       7.862 -12.185 -43.789  1.00  0.00     0.086 A 
ATOM      4  C   UNL     1       8.039 -13.402 -44.463  1.00  0.00     0.144 A 
ATOM      5  C   UNL     1       7.875 -14.633 -43.830  1.00  0.00     0.076 A 
ATOM      6  C   UNL     1       7.564 -14.697 -42.460  1.00  0.00     0.064 A 
ENDROOT
BRANCH   1   7
ATOM      7  N   UNL     1       6.984 -13.388 -40.405  1.00  0.00    -0.321 N 
ATOM      8  C   UNL     1       7.837 -13.193 -39.334  1.00  0.00     0.247 C 
ATOM      9  O   UNL     1       9.061 -13.231 -39.311  1.00  0.00    -0.270 OA
ATOM     10  H   UNL     1       6.048 -13.706 -40.186  1.00  0.00     0.170 HD
BRANCH   8  11
ATOM     11  C   UNL     1       7.061 -12.997 -38.068  1.00  0.00     0.064 C 
ATOM     12  C   UNL     1       7.153 -13.869 -37.058  1.00  0.00     0.014 C 
ENDBRANCH   8  11
ENDBRANCH   1   7
BRANCH   6  13
ATOM     13  N   UNL     1       7.632 -15.925 -41.760  1.00  0.00    -0.372 N 
ATOM     14  C   UNL     1       6.350 -16.627 -41.605  1.00  0.00     0.143 C 
BRANCH  13  15
ATOM     15  C   UNL     1       8.770 -16.747 -42.224  1.00  0.00     0.131 C 
BRANCH  15  16
ATOM     16  C   UNL     1       8.360 -18.226 -42.408  1.00  0.00     0.105 C 
BRANCH  16  17
ATOM     17  N   UNL     1       8.648 -18.760 -43.761  1.00  0.00    -0.308 NA
ATOM     18  C   UNL     1      10.037 -18.448 -44.131  1.00  0.00     0.105 C 
ATOM     19  C   UNL     1       7.735 -18.198 -44.764  1.00  0.00     0.105 C 
ENDBRANCH  16  17
ENDBRANCH  15  16
ENDBRANCH  13  15
ENDBRANCH   6  13
BRANCH   3  20
ATOM     20  N   UNL     1       8.042 -10.979 -44.479  1.00  0.00    -0.321 N 
ATOM     21  H   UNL     1       8.768 -10.384 -44.101  1.00  0.00     0.170 HD
BRANCH  20  22
ATOM     22  C   UNL     1       7.135 -10.196 -45.194  1.00  0.00     0.227 A 
ATOM     23  N   UNL     1       7.544  -9.249 -46.055  1.00  0.00    -0.221 NA
ATOM     24  N   UNL     1       5.847 -10.514 -44.998  1.00  0.00    -0.213 NA
ATOM     25  C   UNL     1       6.586  -8.591 -46.737  1.00  0.00     0.117 A 
ATOM     26  C   UNL     1       4.909  -9.832 -45.694  1.00  0.00     0.078 A 
ATOM     27  C   UNL     1       5.243  -8.840 -46.585  1.00  0.00     0.049 A 
BRANCH  26  28
ATOM     28  C   UNL     1       3.525 -10.227 -45.425  1.00  0.00     0.026 A 
ATOM     29  C   UNL     1       2.592  -9.305 -44.981  1.00  0.00     0.096 A 
ATOM     30  C   UNL     1       2.837 -11.492 -45.505  1.00  0.00     0.009 A 
ATOM     31  N   UNL     1       1.390  -9.929 -44.831  1.00  0.00    -0.350 N 
ATOM     32  C   UNL     1       3.205 -12.822 -45.832  1.00  0.00     0.011 A 
ATOM     33  C   UNL     1       1.498 -11.263 -45.149  1.00  0.00     0.048 A 
ATOM     34  C   UNL     1       2.245 -13.844 -45.835  1.00  0.00     0.001 A 
ATOM     35  C   UNL     1       0.529 -12.282 -45.142  1.00  0.00     0.027 A 
ATOM     36  C   UNL     1       0.923 -13.574 -45.501  1.00  0.00     0.002 A 
ATOM     37  C   UNL     1       0.182  -9.277 -44.372  1.00  0.00     0.149 C 
ENDBRANCH  26  28
ENDBRANCH  20  22
ENDBRANCH   3  20
BRANCH   4  38
ATOM     38  O   UNL     1       8.397 -13.377 -45.789  1.00  0.00    -0.494 OA
ATOM     39  C   UNL     1       9.237 -14.498 -46.095  1.00  0.00     0.278 C 
ENDBRANCH   4  38
TORSDOF 10
ENDMDL
MODEL 15
REMARK minimizedAffinity -7.47156429
REMARK minimizedRMSD -1
REMARK SMILES C=CC(=O)Nc1cc(Nc2nccc(-c3cn(C)c4ccccc34)n2)c(OC)cc1N(C)CCN(C)C
REMARK SMILES IDX 6 1 7 2 8 3 26 4 29 5 30 6 5 7 3 8 4 9 2 11 1 12 31 13 32 14
REMARK SMILES IDX 33 15 34 16 35 17 36 18 37 19 9 20 10 22 11 23 25 24 12 25
REMARK SMILES IDX 14 26 13 27 15 28 16 29 24 30 17 31 23 32 19 33 22 34 20 35
REMARK SMILES IDX 21 36 18 37 27 38 28 39
REMARK H PARENT 5 10 9 21
ROOT
ATOM      1  C   UNL     1       2.112 -14.181 -43.854  1.00  0.00     0.067 A 
ATOM      2  C   UNL     1       1.280 -13.044 -43.943  1.00  0.00     0.058 A 
ATOM      3  C   UNL     1       1.642 -11.932 -44.703  1.00  0.00     0.086 A 
ATOM      4  C   UNL     1       2.890 -11.966 -45.343  1.00  0.00     0.144 A 
ATOM      5  C   UNL     1       3.739 -13.069 -45.256  1.00  0.00     0.076 A 
ATOM      6  C   UNL     1       3.385 -14.184 -44.478  1.00  0.00     0.064 A 
ENDROOT
BRANCH   1   7
ATOM      7  N   UNL     1       1.604 -15.252 -43.077  1.00  0.00    -0.321 N 
ATOM      8  C   UNL     1       0.355 -15.836 -43.188  1.00  0.00     0.247 C 
ATOM      9  O   UNL     1      -0.614 -15.457 -43.833  1.00  0.00    -0.270 OA
ATOM     10  H   UNL     1       2.127 -15.458 -42.235  1.00  0.00     0.170 HD
BRANCH   8  11
ATOM     11  C   UNL     1       0.253 -17.039 -42.301  1.00  0.00     0.064 C 
ATOM     12  C   UNL     1       1.327 -17.526 -41.670  1.00  0.00     0.014 C 
ENDBRANCH   8  11
ENDBRANCH   1   7
BRANCH   6  13
ATOM     13  N   UNL     1       4.333 -15.196 -44.191  1.00  0.00    -0.372 N 
ATOM     14  C   UNL     1       4.503 -16.209 -45.243  1.00  0.00     0.143 C 
BRANCH  13  15
ATOM     15  C   UNL     1       5.578 -14.625 -43.633  1.00  0.00     0.131 C 
BRANCH  15  16
ATOM     16  C   UNL     1       5.954 -15.296 -42.292  1.00  0.00     0.105 C 
BRANCH  16  17
ATOM     17  N   UNL     1       6.530 -16.654 -42.448  1.00  0.00    -0.308 NA
ATOM     18  C   UNL     1       6.493 -17.358 -41.157  1.00  0.00     0.105 C 
ATOM     19  C   UNL     1       7.914 -16.596 -42.935  1.00  0.00     0.105 C 
ENDBRANCH  16  17
ENDBRANCH  15  16
ENDBRANCH  13  15
ENDBRANCH   6  13
BRANCH   3  20
ATOM     20  N   UNL     1       0.833 -10.794 -44.826  1.00  0.00    -0.321 N 
ATOM     21  H   UNL     1       0.844 -10.184 -44.019  1.00  0.00     0.170 HD
BRANCH  20  22
ATOM     22  C   UNL     1      -0.350 -10.592 -45.538  1.00  0.00     0.227 A 
ATOM     23  N   UNL     1      -0.772 -11.464 -46.469  1.00  0.00    -0.221 NA
ATOM     24  N   UNL     1      -1.045  -9.507 -45.168  1.00  0.00    -0.213 NA
ATOM     25  C   UNL     1      -1.956 -11.203 -47.055  1.00  0.00     0.117 A 
ATOM     26  C   UNL     1      -2.229  -9.270 -45.779  1.00  0.00     0.078 A 
ATOM     27  C   UNL     1      -2.726 -10.106 -46.751  1.00  0.00     0.049 A 
BRANCH  26  28
ATOM     28  C   UNL     1      -2.930  -8.065 -45.331  1.00  0.00     0.026 A 
ATOM     29  C   UNL     1      -2.624  -6.822 -45.858  1.00  0.00     0.096 A 
ATOM     30  C   UNL     1      -3.964  -7.845 -44.349  1.00  0.00     0.009 A 
ATOM     31  N   UNL     1      -3.433  -5.887 -45.286  1.00  0.00    -0.350 N 
ATOM     32  C   UNL     1      -4.676  -8.660 -43.433  1.00  0.00     0.011 A 
ATOM     33  C   UNL     1      -4.270  -6.475 -44.365  1.00  0.00     0.048 A 
ATOM     34  C   UNL     1      -5.670  -8.106 -42.614  1.00  0.00     0.001 A 
ATOM     35  C   UNL     1      -5.261  -5.908 -43.543  1.00  0.00     0.027 A 
ATOM     36  C   UNL     1      -5.962  -6.749 -42.675  1.00  0.00     0.002 A 
ATOM     37  C   UNL     1      -3.389  -4.473 -45.587  1.00  0.00     0.149 C 
ENDBRANCH  26  28
ENDBRANCH  20  22
ENDBRANCH   3  20
BRANCH   4  38
ATOM     38  O   UNL     1       3.291 -10.871 -46.067  1.00  0.00    -0.494 OA
ATOM     39  C   UNL     1       4.586 -10.437 -45.630  1.00  0.00     0.278 C 
ENDBRANCH   4  38
TORSDOF 10
ENDMDL
MODEL 16
REMARK minimizedAffinity -7.45274734
REMARK minimizedRMSD -1
REMARK SMILES C=CC(=O)Nc1cc(Nc2nccc(-c3cn(C)c4ccccc34)n2)c(OC)cc1N(C)CCN(C)C
REMARK SMILES IDX 6 1 7 2 8 3 26 4 29 5 30 6 5 7 3 8 4 9 2 11 1 12 31 13 32 14
REMARK SMILES IDX 33 15 34 16 35 17 36 18 37 19 9 20 10 22 11 23 25 24 12 25
REMARK SMILES IDX 14 26 13 27 15 28 16 29 24 30 17 31 23 32 19 33 22 34 20 35
REMARK SMILES IDX 21 36 18 37 27 38 28 39
REMARK H PARENT 5 10 9 21
ROOT
ATOM      1  C   UNL     1       1.016 -11.344 -45.356  1.00  0.00     0.067 A 
ATOM      2  C   UNL     1       2.396 -11.238 -45.634  1.00  0.00     0.058 A 
ATOM      3  C   UNL     1       3.090 -10.044 -45.444  1.00  0.00     0.086 A 
ATOM      4  C   UNL     1       2.354  -8.932 -45.008  1.00  0.00     0.144 A 
ATOM      5  C   UNL     1       0.987  -9.004 -44.744  1.00  0.00     0.076 A 
ATOM      6  C   UNL     1       0.281 -10.201 -44.950  1.00  0.00     0.064 A 
ENDROOT
BRANCH   1   7
ATOM      7  N   UNL     1       0.447 -12.625 -45.560  1.00  0.00    -0.321 N 
ATOM      8  C   UNL     1       0.311 -13.289 -46.766  1.00  0.00     0.247 C 
ATOM      9  O   UNL     1       0.483 -12.860 -47.901  1.00  0.00    -0.270 OA
ATOM     10  H   UNL     1      -0.093 -12.985 -44.783  1.00  0.00     0.170 HD
BRANCH   8  11
ATOM     11  C   UNL     1      -0.192 -14.682 -46.550  1.00  0.00     0.064 C 
ATOM     12  C   UNL     1       0.634 -15.666 -46.176  1.00  0.00     0.014 C 
ENDBRANCH   8  11
ENDBRANCH   1   7
BRANCH   6  13
ATOM     13  N   UNL     1      -1.134 -10.221 -44.917  1.00  0.00    -0.372 N 
ATOM     14  C   UNL     1      -1.734  -9.848 -43.628  1.00  0.00     0.143 C 
BRANCH  13  15
ATOM     15  C   UNL     1      -1.710  -9.570 -46.113  1.00  0.00     0.131 C 
BRANCH  15  16
ATOM     16  C   UNL     1      -3.166  -9.116 -45.862  1.00  0.00     0.105 C 
BRANCH  16  17
ATOM     17  N   UNL     1      -3.436  -7.720 -46.283  1.00  0.00    -0.308 NA
ATOM     18  C   UNL     1      -2.297  -6.864 -45.917  1.00  0.00     0.105 C 
ATOM     19  C   UNL     1      -4.660  -7.200 -45.661  1.00  0.00     0.105 C 
ENDBRANCH  16  17
ENDBRANCH  15  16
ENDBRANCH  13  15
ENDBRANCH   6  13
BRANCH   3  20
ATOM     20  N   UNL     1       4.463  -9.909 -45.695  1.00  0.00    -0.321 N 
ATOM     21  H   UNL     1       4.699  -9.776 -46.670  1.00  0.00     0.170 HD
BRANCH  20  22
ATOM     22  C   UNL     1       5.566 -10.439 -45.024  1.00  0.00     0.227 A 
ATOM     23  N   UNL     1       6.239  -9.730 -44.102  1.00  0.00    -0.221 NA
ATOM     24  N   UNL     1       5.845 -11.715 -45.329  1.00  0.00    -0.213 NA
ATOM     25  C   UNL     1       7.252 -10.357 -43.473  1.00  0.00     0.117 A 
ATOM     26  C   UNL     1       6.871 -12.315 -44.683  1.00  0.00     0.078 A 
ATOM     27  C   UNL     1       7.618 -11.655 -43.734  1.00  0.00     0.049 A 
BRANCH  26  28
ATOM     28  C   UNL     1       7.124 -13.704 -45.070  1.00  0.00     0.026 A 
ATOM     29  C   UNL     1       8.407 -14.223 -45.073  1.00  0.00     0.096 A 
ATOM     30  C   UNL     1       6.256 -14.767 -45.515  1.00  0.00     0.009 A 
ATOM     31  N   UNL     1       8.354 -15.531 -45.450  1.00  0.00    -0.350 N 
ATOM     32  C   UNL     1       4.869 -14.893 -45.778  1.00  0.00     0.011 A 
ATOM     33  C   UNL     1       7.057 -15.901 -45.721  1.00  0.00     0.048 A 
ATOM     34  C   UNL     1       4.333 -16.122 -46.188  1.00  0.00     0.001 A 
ATOM     35  C   UNL     1       6.531 -17.137 -46.138  1.00  0.00     0.027 A 
ATOM     36  C   UNL     1       5.155 -17.231 -46.357  1.00  0.00     0.002 A 
ATOM     37  C   UNL     1       9.510 -16.393 -45.576  1.00  0.00     0.149 C 
ENDBRANCH  26  28
ENDBRANCH  20  22
ENDBRANCH   3  20
BRANCH   4  38
ATOM     38  O   UNL     1       3.002  -7.732 -44.848  1.00  0.00    -0.494 OA
ATOM     39  C   UNL     1       2.169  -6.657 -45.303  1.00  0.00     0.278 C 
ENDBRANCH   4  38
TORSDOF 10
ENDMDL
MODEL 17
REMARK minimizedAffinity -7.43267393
REMARK minimizedRMSD -1
REMARK SMILES C=CC(=O)Nc1cc(Nc2nccc(-c3cn(C)c4ccccc34)n2)c(OC)cc1N(C)CCN(C)C
REMARK SMILES IDX 6 1 7 2 8 3 26 4 29 5 30 6 5 7 3 8 4 9 2 11 1 12 31 13 32 14
REMARK SMILES IDX 33 15 34 16 35 17 36 18 37 19 9 20 10 22 11 23 25 24 12 25
REMARK SMILES IDX 14 26 13 27 15 28 16 29 24 30 17 31 23 32 19 33 22 34 20 35
REMARK SMILES IDX 21 36 18 37 27 38 28 39
REMARK H PARENT 5 10 9 21
ROOT
ATOM      1  C   UNL     1       1.711 -10.929 -45.654  1.00  0.00     0.067 A 
ATOM      2  C   UNL     1       2.808 -11.808 -45.534  1.00  0.00     0.058 A 
ATOM      3  C   UNL     1       2.647 -13.191 -45.604  1.00  0.00     0.086 A 
ATOM      4  C   UNL     1       1.341 -13.682 -45.753  1.00  0.00     0.144 A 
ATOM      5  C   UNL     1       0.237 -12.836 -45.855  1.00  0.00     0.076 A 
ATOM      6  C   UNL     1       0.394 -11.442 -45.768  1.00  0.00     0.064 A 
ENDROOT
BRANCH   1   7
ATOM      7  N   UNL     1       2.024  -9.548 -45.600  1.00  0.00    -0.321 N 
ATOM      8  C   UNL     1       2.437  -8.834 -44.489  1.00  0.00     0.247 C 
ATOM      9  O   UNL     1       2.450  -9.184 -43.315  1.00  0.00    -0.270 OA
ATOM     10  H   UNL     1       1.714  -9.005 -46.397  1.00  0.00     0.170 HD
BRANCH   8  11
ATOM     11  C   UNL     1       2.822  -7.438 -44.869  1.00  0.00     0.064 C 
ATOM     12  C   UNL     1       2.596  -6.409 -44.045  1.00  0.00     0.014 C 
ENDBRANCH   8  11
ENDBRANCH   1   7
BRANCH   6  13
ATOM     13  N   UNL     1      -0.732 -10.595 -45.630  1.00  0.00    -0.372 N 
ATOM     14  C   UNL     1      -1.807 -10.822 -46.606  1.00  0.00     0.143 C 
BRANCH  13  15
ATOM     15  C   UNL     1      -1.151 -10.482 -44.216  1.00  0.00     0.131 C 
BRANCH  15  16
ATOM     16  C   UNL     1      -1.360  -9.007 -43.806  1.00  0.00     0.105 C 
BRANCH  16  17
ATOM     17  N   UNL     1      -2.783  -8.642 -43.602  1.00  0.00    -0.308 NA
ATOM     18  C   UNL     1      -3.593  -9.863 -43.473  1.00  0.00     0.105 C 
ATOM     19  C   UNL     1      -3.293  -7.831 -44.715  1.00  0.00     0.105 C 
ENDBRANCH  16  17
ENDBRANCH  15  16
ENDBRANCH  13  15
ENDBRANCH   6  13
BRANCH   3  20
ATOM     20  N   UNL     1       3.716 -14.092 -45.505  1.00  0.00    -0.321 N 
ATOM     21  H   UNL     1       3.705 -14.833 -46.193  1.00  0.00     0.170 HD
BRANCH  20  22
ATOM     22  C   UNL     1       4.456 -14.506 -44.397  1.00  0.00     0.227 A 
ATOM     23  N   UNL     1       5.260 -13.662 -43.728  1.00  0.00    -0.221 NA
ATOM     24  N   UNL     1       4.245 -15.778 -44.029  1.00  0.00    -0.213 NA
ATOM     25  C   UNL     1       5.883 -14.150 -42.638  1.00  0.00     0.117 A 
ATOM     26  C   UNL     1       4.890 -16.239 -42.932  1.00  0.00     0.078 A 
ATOM     27  C   UNL     1       5.738 -15.444 -42.199  1.00  0.00     0.049 A 
BRANCH  26  28
ATOM     28  C   UNL     1       4.618 -17.637 -42.593  1.00  0.00     0.026 A 
ATOM     29  C   UNL     1       5.421 -18.658 -43.071  1.00  0.00     0.096 A 
ATOM     30  C   UNL     1       3.586 -18.269 -41.807  1.00  0.00     0.009 A 
ATOM     31  N   UNL     1       4.960 -19.846 -42.590  1.00  0.00    -0.350 N 
ATOM     32  C   UNL     1       2.444 -17.822 -41.095  1.00  0.00     0.011 A 
ATOM     33  C   UNL     1       3.846 -19.649 -41.808  1.00  0.00     0.048 A 
ATOM     34  C   UNL     1       1.643 -18.734 -40.394  1.00  0.00     0.001 A 
ATOM     35  C   UNL     1       3.045 -20.573 -41.113  1.00  0.00     0.027 A 
ATOM     36  C   UNL     1       1.946 -20.091 -40.398  1.00  0.00     0.002 A 
ATOM     37  C   UNL     1       5.549 -21.134 -42.890  1.00  0.00     0.149 C 
ENDBRANCH  26  28
ENDBRANCH  20  22
ENDBRANCH   3  20
BRANCH   4  38
ATOM     38  O   UNL     1       1.145 -15.041 -45.786  1.00  0.00    -0.494 OA
ATOM     39  C   UNL     1       0.690 -15.442 -47.085  1.00  0.00     0.278 C 
ENDBRANCH   4  38
TORSDOF 10
ENDMDL
MODEL 18
REMARK minimizedAffinity -7.41442776
REMARK minimizedRMSD -1
REMARK SMILES C=CC(=O)Nc1cc(Nc2nccc(-c3cn(C)c4ccccc34)n2)c(OC)cc1N(C)CCN(C)C
REMARK SMILES IDX 6 1 7 2 8 3 26 4 29 5 30 6 5 7 3 8 4 9 2 11 1 12 31 13 32 14
REMARK SMILES IDX 33 15 34 16 35 17 36 18 37 19 9 20 10 22 11 23 25 24 12 25
REMARK SMILES IDX 14 26 13 27 15 28 16 29 24 30 17 31 23 32 19 33 22 34 20 35
REMARK SMILES IDX 21 36 18 37 27 38 28 39
REMARK H PARENT 5 10 9 21
ROOT
ATOM      1  C   UNL     1       0.888 -10.076 -44.859  1.00  0.00     0.067 A 
ATOM      2  C   UNL     1       2.230  -9.642 -44.903  1.00  0.00     0.058 A 
ATOM      3  C   UNL     1       2.561  -8.288 -44.848  1.00  0.00     0.086 A 
ATOM      4  C   UNL     1       1.506  -7.367 -44.794  1.00  0.00     0.144 A 
ATOM      5  C   UNL     1       0.170  -7.768 -44.768  1.00  0.00     0.076 A 
ATOM      6  C   UNL     1      -0.168  -9.130 -44.840  1.00  0.00     0.064 A 
ENDROOT
BRANCH   1   7
ATOM      7  N   UNL     1       0.697 -11.480 -44.886  1.00  0.00    -0.321 N 
ATOM      8  C   UNL     1       0.729 -12.342 -43.804  1.00  0.00     0.247 C 
ATOM      9  O   UNL     1       1.092 -12.117 -42.656  1.00  0.00    -0.270 OA
ATOM     10  H   UNL     1       0.753 -11.904 -45.804  1.00  0.00     0.170 HD
BRANCH   8  11
ATOM     11  C   UNL     1       0.325 -13.723 -44.216  1.00  0.00     0.064 C 
ATOM     12  C   UNL     1       0.665 -14.791 -43.484  1.00  0.00     0.014 C 
ENDBRANCH   8  11
ENDBRANCH   1   7
BRANCH   6  13
ATOM     13  N   UNL     1      -1.509  -9.531 -45.055  1.00  0.00    -0.372 N 
ATOM     14  C   UNL     1      -2.251  -9.907 -43.842  1.00  0.00     0.143 C 
BRANCH  13  15
ATOM     15  C   UNL     1      -2.203  -8.613 -45.983  1.00  0.00     0.131 C 
BRANCH  15  16
ATOM     16  C   UNL     1      -3.550  -8.131 -45.396  1.00  0.00     0.105 C 
BRANCH  16  17
ATOM     17  N   UNL     1      -3.585  -6.677 -45.103  1.00  0.00    -0.308 NA
ATOM     18  C   UNL     1      -2.664  -5.968 -46.005  1.00  0.00     0.105 C 
ATOM     19  C   UNL     1      -3.215  -6.403 -43.709  1.00  0.00     0.105 C 
ENDBRANCH  16  17
ENDBRANCH  15  16
ENDBRANCH  13  15
ENDBRANCH   6  13
BRANCH   3  20
ATOM     20  N   UNL     1       3.884  -7.824 -44.874  1.00  0.00    -0.321 N 
ATOM     21  H   UNL     1       4.128  -7.302 -45.706  1.00  0.00     0.170 HD
BRANCH  20  22
ATOM     22  C   UNL     1       5.044  -8.352 -44.307  1.00  0.00     0.227 A 
ATOM     23  N   UNL     1       5.767  -7.665 -43.407  1.00  0.00    -0.221 NA
ATOM     24  N   UNL     1       5.328  -9.607 -44.684  1.00  0.00    -0.213 NA
ATOM     25  C   UNL     1       6.837  -8.291 -42.879  1.00  0.00     0.117 A 
ATOM     26  C   UNL     1       6.412 -10.207 -44.139  1.00  0.00     0.078 A 
ATOM     27  C   UNL     1       7.211  -9.568 -43.220  1.00  0.00     0.049 A 
BRANCH  26  28
ATOM     28  C   UNL     1       6.665 -11.573 -44.601  1.00  0.00     0.026 A 
ATOM     29  C   UNL     1       7.956 -12.051 -44.742  1.00  0.00     0.096 A 
ATOM     30  C   UNL     1       5.789 -12.646 -45.005  1.00  0.00     0.009 A 
ATOM     31  N   UNL     1       7.905 -13.346 -45.163  1.00  0.00    -0.350 N 
ATOM     32  C   UNL     1       4.387 -12.806 -45.144  1.00  0.00     0.011 A 
ATOM     33  C   UNL     1       6.599 -13.747 -45.327  1.00  0.00     0.048 A 
ATOM     34  C   UNL     1       3.850 -14.036 -45.549  1.00  0.00     0.001 A 
ATOM     35  C   UNL     1       6.071 -14.983 -45.740  1.00  0.00     0.027 A 
ATOM     36  C   UNL     1       4.683 -15.112 -45.835  1.00  0.00     0.002 A 
ATOM     37  C   UNL     1       9.067 -14.167 -45.428  1.00  0.00     0.149 C 
ENDBRANCH  26  28
ENDBRANCH  20  22
ENDBRANCH   3  20
BRANCH   4  38
ATOM     38  O   UNL     1       1.799  -6.025 -44.778  1.00  0.00    -0.494 OA
ATOM     39  C   UNL     1       1.150  -5.365 -45.873  1.00  0.00     0.278 C 
ENDBRANCH   4  38
TORSDOF 10
ENDMDL
MODEL 19
REMARK minimizedAffinity -7.36835909
REMARK minimizedRMSD -1
REMARK SMILES C=CC(=O)Nc1cc(Nc2nccc(-c3cn(C)c4ccccc34)n2)c(OC)cc1N(C)CCN(C)C
REMARK SMILES IDX 6 1 7 2 8 3 26 4 29 5 30 6 5 7 3 8 4 9 2 11 1 12 31 13 32 14
REMARK SMILES IDX 33 15 34 16 35 17 36 18 37 19 9 20 10 22 11 23 25 24 12 25
REMARK SMILES IDX 14 26 13 27 15 28 16 29 24 30 17 31 23 32 19 33 22 34 20 35
REMARK SMILES IDX 21 36 18 37 27 38 28 39
REMARK H PARENT 5 10 9 21
ROOT
ATOM      1  C   UNL     1       6.209 -14.147 -44.986  1.00  0.00     0.067 A 
ATOM      2  C   UNL     1       4.931 -13.646 -45.316  1.00  0.00     0.058 A 
ATOM      3  C   UNL     1       4.664 -12.277 -45.328  1.00  0.00     0.086 A 
ATOM      4  C   UNL     1       5.704 -11.414 -44.954  1.00  0.00     0.144 A 
ATOM      5  C   UNL     1       6.970 -11.884 -44.605  1.00  0.00     0.076 A 
ATOM      6  C   UNL     1       7.238 -13.263 -44.576  1.00  0.00     0.064 A 
ENDROOT
BRANCH   1   7
ATOM      7  N   UNL     1       6.349 -15.556 -45.049  1.00  0.00    -0.321 N 
ATOM      8  C   UNL     1       6.919 -16.287 -46.077  1.00  0.00     0.247 C 
ATOM      9  O   UNL     1       7.253 -15.908 -47.192  1.00  0.00    -0.270 OA
ATOM     10  H   UNL     1       5.793 -16.074 -44.380  1.00  0.00     0.170 HD
BRANCH   8  11
ATOM     11  C   UNL     1       7.024 -17.733 -45.702  1.00  0.00     0.064 C 
ATOM     12  C   UNL     1       5.939 -18.444 -45.378  1.00  0.00     0.014 C 
ENDBRANCH   8  11
ENDBRANCH   1   7
BRANCH   6  13
ATOM     13  N   UNL     1       8.433 -13.755 -43.998  1.00  0.00    -0.372 N 
ATOM     14  C   UNL     1       9.657 -13.045 -44.394  1.00  0.00     0.143 C 
BRANCH  13  15
ATOM     15  C   UNL     1       8.268 -14.006 -42.550  1.00  0.00     0.131 C 
BRANCH  15  16
ATOM     16  C   UNL     1       9.249 -13.153 -41.715  1.00  0.00     0.105 C 
BRANCH  16  17
ATOM     17  N   UNL     1       8.604 -12.440 -40.584  1.00  0.00    -0.308 NA
ATOM     18  C   UNL     1       7.904 -13.407 -39.725  1.00  0.00     0.105 C 
ATOM     19  C   UNL     1       7.652 -11.429 -41.062  1.00  0.00     0.105 C 
ENDBRANCH  16  17
ENDBRANCH  15  16
ENDBRANCH  13  15
ENDBRANCH   6  13
BRANCH   3  20
ATOM     20  N   UNL     1       3.412 -11.746 -45.666  1.00  0.00    -0.321 N 
ATOM     21  H   UNL     1       3.428 -11.099 -46.444  1.00  0.00     0.170 HD
BRANCH  20  22
ATOM     22  C   UNL     1       2.292 -11.485 -44.876  1.00  0.00     0.227 A 
ATOM     23  N   UNL     1       1.947 -12.286 -43.853  1.00  0.00    -0.221 NA
ATOM     24  N   UNL     1       1.644 -10.352 -45.182  1.00  0.00    -0.213 NA
ATOM     25  C   UNL     1       0.882 -11.911 -43.119  1.00  0.00     0.117 A 
ATOM     26  C   UNL     1       0.575 -10.005 -44.429  1.00  0.00     0.078 A 
ATOM     27  C   UNL     1       0.150 -10.776 -43.372  1.00  0.00     0.049 A 
BRANCH  26  28
ATOM     28  C   UNL     1      -0.088  -8.761 -44.824  1.00  0.00     0.026 A 
ATOM     29  C   UNL     1       0.633  -7.593 -45.004  1.00  0.00     0.096 A 
ATOM     30  C   UNL     1      -1.468  -8.428 -45.080  1.00  0.00     0.009 A 
ATOM     31  N   UNL     1      -0.219  -6.602 -45.387  1.00  0.00    -0.350 N 
ATOM     32  C   UNL     1      -2.701  -9.127 -45.027  1.00  0.00     0.011 A 
ATOM     33  C   UNL     1      -1.509  -7.075 -45.452  1.00  0.00     0.048 A 
ATOM     34  C   UNL     1      -3.896  -8.484 -45.377  1.00  0.00     0.001 A 
ATOM     35  C   UNL     1      -2.704  -6.418 -45.798  1.00  0.00     0.027 A 
ATOM     36  C   UNL     1      -3.895  -7.148 -45.765  1.00  0.00     0.002 A 
ATOM     37  C   UNL     1       0.182  -5.237 -45.655  1.00  0.00     0.149 C 
ENDBRANCH  26  28
ENDBRANCH  20  22
ENDBRANCH   3  20
BRANCH   4  38
ATOM     38  O   UNL     1       5.461 -10.063 -44.918  1.00  0.00    -0.494 OA
ATOM     39  C   UNL     1       6.553  -9.381 -44.287  1.00  0.00     0.278 C 
ENDBRANCH   4  38
TORSDOF 10
ENDMDL
MODEL 20
REMARK minimizedAffinity -7.35042238
REMARK minimizedRMSD -1
REMARK SMILES C=CC(=O)Nc1cc(Nc2nccc(-c3cn(C)c4ccccc34)n2)c(OC)cc1N(C)CCN(C)C
REMARK SMILES IDX 6 1 7 2 8 3 26 4 29 5 30 6 5 7 3 8 4 9 2 11 1 12 31 13 32 14
REMARK SMILES IDX 33 15 34 16 35 17 36 18 37 19 9 20 10 22 11 23 25 24 12 25
REMARK SMILES IDX 14 26 13 27 15 28 16 29 24 30 17 31 23 32 19 33 22 34 20 35
REMARK SMILES IDX 21 36 18 37 27 38 28 39
REMARK H PARENT 5 10 9 21
ROOT
ATOM      1  C   UNL     1       9.420 -14.313 -44.196  1.00  0.00     0.067 A 
ATOM      2  C   UNL     1       9.080 -12.952 -44.350  1.00  0.00     0.058 A 
ATOM      3  C   UNL     1       8.230 -12.306 -43.453  1.00  0.00     0.086 A 
ATOM      4  C   UNL     1       7.685 -13.073 -42.413  1.00  0.00     0.144 A 
ATOM      5  C   UNL     1       7.989 -14.424 -42.249  1.00  0.00     0.076 A 
ATOM      6  C   UNL     1       8.833 -15.083 -43.160  1.00  0.00     0.064 A 
ENDROOT
BRANCH   1   7
ATOM      7  N   UNL     1      10.322 -14.832 -45.158  1.00  0.00    -0.321 N 
ATOM      8  C   UNL     1       9.994 -15.477 -46.337  1.00  0.00     0.247 C 
ATOM      9  O   UNL     1       8.901 -15.885 -46.709  1.00  0.00    -0.270 OA
ATOM     10  H   UNL     1      11.281 -14.920 -44.846  1.00  0.00     0.170 HD
BRANCH   8  11
ATOM     11  C   UNL     1      11.219 -15.733 -47.159  1.00  0.00     0.064 C 
ATOM     12  C   UNL     1      12.369 -15.097 -46.904  1.00  0.00     0.014 C 
ENDBRANCH   8  11
ENDBRANCH   1   7
BRANCH   6  13
ATOM     13  N   UNL     1       8.955 -16.493 -43.142  1.00  0.00    -0.372 N 
ATOM     14  C   UNL     1      10.064 -17.014 -42.330  1.00  0.00     0.143 C 
BRANCH  13  15
ATOM     15  C   UNL     1       7.642 -17.145 -42.942  1.00  0.00     0.131 C 
BRANCH  15  16
ATOM     16  C   UNL     1       6.982 -17.507 -44.291  1.00  0.00     0.105 C 
BRANCH  16  17
ATOM     17  N   UNL     1       5.632 -16.917 -44.471  1.00  0.00    -0.308 NA
ATOM     18  C   UNL     1       5.753 -15.574 -45.058  1.00  0.00     0.105 C 
ATOM     19  C   UNL     1       4.912 -16.830 -43.194  1.00  0.00     0.105 C 
ENDBRANCH  16  17
ENDBRANCH  15  16
ENDBRANCH  13  15
ENDBRANCH   6  13
BRANCH   3  20
ATOM     20  N   UNL     1       7.885 -10.952 -43.568  1.00  0.00    -0.321 N 
ATOM     21  H   UNL     1       7.744 -10.480 -42.684  1.00  0.00     0.170 HD
BRANCH  20  22
ATOM     22  C   UNL     1       7.186 -10.274 -44.567  1.00  0.00     0.227 A 
ATOM     23  N   UNL     1       7.815  -9.507 -45.473  1.00  0.00    -0.221 NA
ATOM     24  N   UNL     1       5.865 -10.505 -44.580  1.00  0.00    -0.213 NA
ATOM     25  C   UNL     1       7.052  -8.944 -46.430  1.00  0.00     0.117 A 
ATOM     26  C   UNL     1       5.125  -9.921 -45.551  1.00  0.00     0.078 A 
ATOM     27  C   UNL     1       5.691  -9.113 -46.509  1.00  0.00     0.049 A 
BRANCH  26  28
ATOM     28  C   UNL     1       3.691 -10.211 -45.500  1.00  0.00     0.026 A 
ATOM     29  C   UNL     1       2.763  -9.199 -45.325  1.00  0.00     0.096 A 
ATOM     30  C   UNL     1       2.940 -11.441 -45.579  1.00  0.00     0.009 A 
ATOM     31  N   UNL     1       1.512  -9.740 -45.336  1.00  0.00    -0.350 N 
ATOM     32  C   UNL     1       3.265 -12.815 -45.702  1.00  0.00     0.011 A 
ATOM     33  C   UNL     1       1.580 -11.105 -45.496  1.00  0.00     0.048 A 
ATOM     34  C   UNL     1       2.251 -13.780 -45.779  1.00  0.00     0.001 A 
ATOM     35  C   UNL     1       0.554 -12.065 -45.566  1.00  0.00     0.027 A 
ATOM     36  C   UNL     1       0.913 -13.407 -45.719  1.00  0.00     0.002 A 
ATOM     37  C   UNL     1       0.292  -8.980 -45.170  1.00  0.00     0.149 C 
ENDBRANCH  26  28
ENDBRANCH  20  22
ENDBRANCH   3  20
BRANCH   4  38
ATOM     38  O   UNL     1       6.814 -12.474 -41.536  1.00  0.00    -0.494 OA
ATOM     39  C   UNL     1       7.438 -12.309 -40.256  1.00  0.00     0.278 C 
ENDBRANCH   4  38
TORSDOF 10
ENDMDL
