MODEL 1
REMARK minimizedAffinity -8.27853203
REMARK minimizedRMSD -1
REMARK SMILES CN(C)C/C=C/C(=O)Nc1cc2c(Nc3ccc(F)c(Cl)c3)ncnc2cc1O[C@H]1CCOC1
REMARK SMILES IDX 7 1 8 2 9 3 6 5 5 6 4 7 2 8 1 9 3 10 10 11 11 12 28 13 12 14
REMARK SMILES IDX 27 15 13 16 26 17 23 18 25 19 24 20 29 21 30 22 31 23 34 24
REMARK SMILES IDX 32 25 33 26 14 27 15 29 16 30 22 31 17 32 20 33 18 34 21 35
REMARK SMILES IDX 19 36
REMARK H PARENT 9 4 14 28
ROOT
ATOM      1  C   UNL     1      -0.007 -15.537 -43.617  1.00  0.00     0.248 C 
ATOM      2  O   UNL     1      -0.709 -15.432 -44.616  1.00  0.00    -0.270 OA
ATOM      3  N   UNL     1       0.889 -14.618 -43.132  1.00  0.00    -0.319 N 
ATOM      4  H   UNL     1       1.289 -14.780 -42.213  1.00  0.00     0.170 HD
ENDROOT
BRANCH   1   5
ATOM      5  C   UNL     1      -0.168 -16.739 -42.752  1.00  0.00     0.068 C 
ATOM      6  C   UNL     1      -1.143 -17.649 -42.916  1.00  0.00    -0.006 C 
BRANCH   6   7
ATOM      7  C   UNL     1      -1.449 -18.882 -42.107  1.00  0.00     0.111 C 
BRANCH   7   8
ATOM      8  N   UNL     1      -0.439 -19.894 -41.838  1.00  0.00    -0.306 NA
ATOM      9  C   UNL     1      -0.917 -21.266 -41.894  1.00  0.00     0.105 C 
ATOM     10  C   UNL     1       0.418 -19.627 -40.694  1.00  0.00     0.105 C 
ENDBRANCH   7   8
ENDBRANCH   6   7
ENDBRANCH   1   5
BRANCH   3  11
ATOM     11  C   UNL     1       1.296 -13.403 -43.723  1.00  0.00     0.085 A 
ATOM     12  C   UNL     1       0.620 -12.197 -43.548  1.00  0.00     0.044 A 
ATOM     13  C   UNL     1       2.437 -13.438 -44.541  1.00  0.00     0.145 A 
ATOM     14  C   UNL     1       1.079 -11.006 -44.166  1.00  0.00     0.045 A 
ATOM     15  C   UNL     1       2.867 -12.268 -45.170  1.00  0.00     0.077 A 
ATOM     16  C   UNL     1       0.480  -9.736 -44.028  1.00  0.00     0.141 A 
ATOM     17  C   UNL     1       2.209 -11.056 -44.991  1.00  0.00     0.080 A 
ATOM     18  N   UNL     1       0.958  -8.656 -44.670  1.00  0.00    -0.219 NA
ATOM     19  N   UNL     1       2.692  -9.984 -45.623  1.00  0.00    -0.236 NA
ATOM     20  C   UNL     1       2.037  -8.832 -45.436  1.00  0.00     0.224 A 
BRANCH  13  21
ATOM     21  O   UNL     1       3.039 -14.668 -44.653  1.00  0.00    -0.486 OA
BRANCH  21  22
ATOM     22  C   UNL     1       4.472 -14.741 -44.637  1.00  0.00     0.201 C 
ATOM     23  C   UNL     1       4.912 -14.663 -43.191  1.00  0.00     0.076 C 
ATOM     24  C   UNL     1       4.959 -16.131 -45.027  1.00  0.00     0.205 C 
ATOM     25  C   UNL     1       4.704 -16.084 -42.714  1.00  0.00     0.164 C 
ATOM     26  O   UNL     1       4.973 -16.937 -43.833  1.00  0.00    -0.377 OA
ENDBRANCH  21  22
ENDBRANCH  13  21
BRANCH  16  27
ATOM     27  N   UNL     1      -0.662  -9.600 -43.191  1.00  0.00    -0.340 N 
ATOM     28  H   UNL     1      -0.406  -9.090 -42.352  1.00  0.00     0.168 HD
BRANCH  27  29
ATOM     29  C   UNL     1      -2.010  -9.380 -43.553  1.00  0.00     0.041 A 
ATOM     30  C   UNL     1      -2.397  -8.092 -43.961  1.00  0.00     0.029 A 
ATOM     31  C   UNL     1      -3.005 -10.358 -43.417  1.00  0.00     0.049 A 
ATOM     32  C   UNL     1      -3.726  -7.805 -44.283  1.00  0.00     0.043 A 
ATOM     33  C   UNL     1      -4.335 -10.073 -43.737  1.00  0.00     0.078 A 
ATOM     34  C   UNL     1      -4.688  -8.800 -44.173  1.00  0.00     0.141 A 
ATOM     35  Cl  UNL     1      -5.529 -11.305 -43.576  1.00  0.00    -0.081 Cl
ATOM     36  F   UNL     1      -5.959  -8.506 -44.483  1.00  0.00    -0.205 F 
ENDBRANCH  27  29
ENDBRANCH  16  27
ENDBRANCH   3  11
TORSDOF 8
ENDMDL
MODEL 2
REMARK minimizedAffinity -8.12329483
REMARK minimizedRMSD -1
REMARK SMILES CN(C)C/C=C/C(=O)Nc1cc2c(Nc3ccc(F)c(Cl)c3)ncnc2cc1O[C@H]1CCOC1
REMARK SMILES IDX 7 1 8 2 9 3 6 5 5 6 4 7 2 8 1 9 3 10 10 11 11 12 28 13 12 14
REMARK SMILES IDX 27 15 13 16 26 17 23 18 25 19 24 20 29 21 30 22 31 23 34 24
REMARK SMILES IDX 32 25 33 26 14 27 15 29 16 30 22 31 17 32 20 33 18 34 21 35
REMARK SMILES IDX 19 36
REMARK H PARENT 9 4 14 28
ROOT
ATOM      1  C   UNL     1       0.082 -15.240 -43.662  1.00  0.00     0.248 C 
ATOM      2  O   UNL     1      -0.535 -15.167 -44.718  1.00  0.00    -0.270 OA
ATOM      3  N   UNL     1       1.056 -14.387 -43.209  1.00  0.00    -0.319 N 
ATOM      4  H   UNL     1       1.372 -14.488 -42.250  1.00  0.00     0.170 HD
ENDROOT
BRANCH   1   5
ATOM      5  C   UNL     1      -0.288 -16.306 -42.689  1.00  0.00     0.068 C 
ATOM      6  C   UNL     1      -0.831 -17.482 -43.046  1.00  0.00    -0.006 C 
BRANCH   6   7
ATOM      7  C   UNL     1      -1.284 -18.629 -42.180  1.00  0.00     0.111 C 
BRANCH   7   8
ATOM      8  N   UNL     1      -0.421 -19.766 -41.898  1.00  0.00    -0.306 NA
ATOM      9  C   UNL     1      -1.086 -21.059 -41.917  1.00  0.00     0.105 C 
ATOM     10  C   UNL     1       0.481 -19.597 -40.770  1.00  0.00     0.105 C 
ENDBRANCH   7   8
ENDBRANCH   6   7
ENDBRANCH   1   5
BRANCH   3  11
ATOM     11  C   UNL     1       1.653 -13.306 -43.892  1.00  0.00     0.085 A 
ATOM     12  C   UNL     1       1.113 -12.022 -43.924  1.00  0.00     0.044 A 
ATOM     13  C   UNL     1       2.847 -13.565 -44.583  1.00  0.00     0.145 A 
ATOM     14  C   UNL     1       1.760 -10.973 -44.626  1.00  0.00     0.045 A 
ATOM     15  C   UNL     1       3.465 -12.536 -45.297  1.00  0.00     0.077 A 
ATOM     16  C   UNL     1       1.307  -9.639 -44.694  1.00  0.00     0.141 A 
ATOM     17  C   UNL     1       2.943 -11.248 -45.324  1.00  0.00     0.080 A 
ATOM     18  N   UNL     1       1.963  -8.705 -45.406  1.00  0.00    -0.219 NA
ATOM     19  N   UNL     1       3.601 -10.321 -46.024  1.00  0.00    -0.236 NA
ATOM     20  C   UNL     1       3.075  -9.092 -46.035  1.00  0.00     0.224 A 
BRANCH  13  21
ATOM     21  O   UNL     1       3.307 -14.858 -44.494  1.00  0.00    -0.486 OA
BRANCH  21  22
ATOM     22  C   UNL     1       4.715 -15.082 -44.345  1.00  0.00     0.201 C 
ATOM     23  C   UNL     1       5.017 -15.089 -42.862  1.00  0.00     0.076 C 
ATOM     24  C   UNL     1       5.093 -16.505 -44.738  1.00  0.00     0.205 C 
ATOM     25  C   UNL     1       4.619 -16.492 -42.459  1.00  0.00     0.164 C 
ATOM     26  O   UNL     1       4.907 -17.339 -43.577  1.00  0.00    -0.377 OA
ENDBRANCH  21  22
ENDBRANCH  13  21
BRANCH  16  27
ATOM     27  N   UNL     1       0.122  -9.278 -43.995  1.00  0.00    -0.340 N 
ATOM     28  H   UNL     1       0.368  -8.729 -43.178  1.00  0.00     0.168 HD
BRANCH  27  29
ATOM     29  C   UNL     1      -1.143  -8.920 -44.513  1.00  0.00     0.041 A 
ATOM     30  C   UNL     1      -1.523  -9.419 -45.770  1.00  0.00     0.029 A 
ATOM     31  C   UNL     1      -1.991  -8.000 -43.882  1.00  0.00     0.049 A 
ATOM     32  C   UNL     1      -2.741  -9.059 -46.353  1.00  0.00     0.043 A 
ATOM     33  C   UNL     1      -3.210  -7.637 -44.463  1.00  0.00     0.078 A 
ATOM     34  C   UNL     1      -3.580  -8.172 -45.692  1.00  0.00     0.141 A 
ATOM     35  Cl  UNL     1      -4.237  -6.517 -43.651  1.00  0.00    -0.081 Cl
ATOM     36  F   UNL     1      -4.744  -7.835 -46.268  1.00  0.00    -0.205 F 
ENDBRANCH  27  29
ENDBRANCH  16  27
ENDBRANCH   3  11
TORSDOF 8
ENDMDL
MODEL 3
REMARK minimizedAffinity -8.06218719
REMARK minimizedRMSD -1
REMARK SMILES CN(C)C/C=C/C(=O)Nc1cc2c(Nc3ccc(F)c(Cl)c3)ncnc2cc1O[C@H]1CCOC1
REMARK SMILES IDX 7 1 8 2 9 3 6 5 5 6 4 7 2 8 1 9 3 10 10 11 11 12 28 13 12 14
REMARK SMILES IDX 27 15 13 16 26 17 23 18 25 19 24 20 29 21 30 22 31 23 34 24
REMARK SMILES IDX 32 25 33 26 14 27 15 29 16 30 22 31 17 32 20 33 18 34 21 35
REMARK SMILES IDX 19 36
REMARK H PARENT 9 4 14 28
ROOT
ATOM      1  C   UNL     1       3.105 -15.062 -43.841  1.00  0.00     0.248 C 
ATOM      2  O   UNL     1       3.680 -16.080 -44.207  1.00  0.00    -0.270 OA
ATOM      3  N   UNL     1       1.856 -14.972 -43.279  1.00  0.00    -0.319 N 
ATOM      4  H   UNL     1       1.571 -14.079 -42.889  1.00  0.00     0.170 HD
ENDROOT
BRANCH   1   5
ATOM      5  C   UNL     1       3.829 -13.763 -43.915  1.00  0.00     0.068 C 
ATOM      6  C   UNL     1       4.670 -13.437 -44.911  1.00  0.00    -0.006 C 
BRANCH   6   7
ATOM      7  C   UNL     1       5.492 -12.188 -45.100  1.00  0.00     0.111 C 
BRANCH   7   8
ATOM      8  N   UNL     1       6.364 -11.677 -44.053  1.00  0.00    -0.306 NA
ATOM      9  C   UNL     1       6.916 -10.356 -44.307  1.00  0.00     0.105 C 
ATOM     10  C   UNL     1       7.343 -12.624 -43.543  1.00  0.00     0.105 C 
ENDBRANCH   7   8
ENDBRANCH   6   7
ENDBRANCH   1   5
BRANCH   3  11
ATOM     11  C   UNL     1       0.906 -16.000 -43.098  1.00  0.00     0.085 A 
ATOM     12  C   UNL     1       1.083 -17.067 -42.220  1.00  0.00     0.044 A 
ATOM     13  C   UNL     1      -0.267 -15.931 -43.867  1.00  0.00     0.145 A 
ATOM     14  C   UNL     1       0.091 -18.070 -42.079  1.00  0.00     0.045 A 
ATOM     15  C   UNL     1      -1.227 -16.937 -43.745  1.00  0.00     0.077 A 
ATOM     16  C   UNL     1       0.167 -19.171 -41.200  1.00  0.00     0.141 A 
ATOM     17  C   UNL     1      -1.068 -17.999 -42.862  1.00  0.00     0.080 A 
ATOM     18  N   UNL     1      -0.805 -20.099 -41.143  1.00  0.00    -0.219 NA
ATOM     19  N   UNL     1      -2.039 -18.913 -42.801  1.00  0.00    -0.236 NA
ATOM     20  C   UNL     1      -1.858 -19.925 -41.946  1.00  0.00     0.224 A 
BRANCH  13  21
ATOM     21  O   UNL     1      -0.356 -14.844 -44.703  1.00  0.00    -0.486 OA
BRANCH  21  22
ATOM     22  C   UNL     1      -0.461 -15.065 -46.116  1.00  0.00     0.201 C 
ATOM     23  C   UNL     1      -0.300 -13.722 -46.797  1.00  0.00     0.076 C 
ATOM     24  C   UNL     1       0.752 -15.820 -46.648  1.00  0.00     0.205 C 
ATOM     25  C   UNL     1       1.202 -13.542 -46.803  1.00  0.00     0.164 C 
ATOM     26  O   UNL     1       1.772 -14.848 -46.945  1.00  0.00    -0.377 OA
ENDBRANCH  21  22
ENDBRANCH  13  21
BRANCH  16  27
ATOM     27  N   UNL     1       1.305 -19.303 -40.358  1.00  0.00    -0.340 N 
ATOM     28  H   UNL     1       1.070 -19.887 -39.562  1.00  0.00     0.168 HD
BRANCH  27  29
ATOM     29  C   UNL     1       2.668 -19.418 -40.713  1.00  0.00     0.041 A 
ATOM     30  C   UNL     1       3.038 -20.390 -41.659  1.00  0.00     0.029 A 
ATOM     31  C   UNL     1       3.684 -18.684 -40.086  1.00  0.00     0.049 A 
ATOM     32  C   UNL     1       4.377 -20.582 -42.011  1.00  0.00     0.043 A 
ATOM     33  C   UNL     1       5.023 -18.874 -40.437  1.00  0.00     0.078 A 
ATOM     34  C   UNL     1       5.362 -19.818 -41.400  1.00  0.00     0.141 A 
ATOM     35  Cl  UNL     1       6.244 -17.941 -39.659  1.00  0.00    -0.081 Cl
ATOM     36  F   UNL     1       6.642 -20.018 -41.750  1.00  0.00    -0.205 F 
ENDBRANCH  27  29
ENDBRANCH  16  27
ENDBRANCH   3  11
TORSDOF 8
ENDMDL
MODEL 4
REMARK minimizedAffinity -8.0491457
REMARK minimizedRMSD -1
REMARK SMILES CN(C)C/C=C/C(=O)Nc1cc2c(Nc3ccc(F)c(Cl)c3)ncnc2cc1O[C@H]1CCOC1
REMARK SMILES IDX 7 1 8 2 9 3 6 5 5 6 4 7 2 8 1 9 3 10 10 11 11 12 28 13 12 14
REMARK SMILES IDX 27 15 13 16 26 17 23 18 25 19 24 20 29 21 30 22 31 23 34 24
REMARK SMILES IDX 32 25 33 26 14 27 15 29 16 30 22 31 17 32 20 33 18 34 21 35
REMARK SMILES IDX 19 36
REMARK H PARENT 9 4 14 28
ROOT
ATOM      1  C   UNL     1      -1.538 -10.261 -44.168  1.00  0.00     0.248 C 
ATOM      2  O   UNL     1      -2.132 -10.978 -44.964  1.00  0.00    -0.270 OA
ATOM      3  N   UNL     1      -0.213 -10.327 -43.819  1.00  0.00    -0.319 N 
ATOM      4  H   UNL     1       0.172  -9.573 -43.260  1.00  0.00     0.170 HD
ENDROOT
BRANCH   1   5
ATOM      5  C   UNL     1      -2.270  -9.123 -43.546  1.00  0.00     0.068 C 
ATOM      6  C   UNL     1      -3.594  -8.931 -43.674  1.00  0.00    -0.006 C 
BRANCH   6   7
ATOM      7  C   UNL     1      -4.456  -7.818 -43.137  1.00  0.00     0.111 C 
BRANCH   7   8
ATOM      8  N   UNL     1      -4.954  -6.751 -43.993  1.00  0.00    -0.306 NA
ATOM      9  C   UNL     1      -5.442  -7.186 -45.292  1.00  0.00     0.105 C 
ATOM     10  C   UNL     1      -4.115  -5.566 -44.059  1.00  0.00     0.105 C 
ENDBRANCH   7   8
ENDBRANCH   6   7
ENDBRANCH   1   5
BRANCH   3  11
ATOM     11  C   UNL     1       0.740 -11.296 -44.200  1.00  0.00     0.085 A 
ATOM     12  C   UNL     1       0.765 -12.593 -43.691  1.00  0.00     0.044 A 
ATOM     13  C   UNL     1       1.715 -10.906 -45.132  1.00  0.00     0.145 A 
ATOM     14  C   UNL     1       1.746 -13.526 -44.114  1.00  0.00     0.045 A 
ATOM     15  C   UNL     1       2.696 -11.820 -45.522  1.00  0.00     0.077 A 
ATOM     16  C   UNL     1       1.837 -14.864 -43.678  1.00  0.00     0.141 A 
ATOM     17  C   UNL     1       2.723 -13.120 -45.032  1.00  0.00     0.080 A 
ATOM     18  N   UNL     1       2.816 -15.682 -44.104  1.00  0.00    -0.219 NA
ATOM     19  N   UNL     1       3.691 -13.932 -45.464  1.00  0.00    -0.236 NA
ATOM     20  C   UNL     1       3.694 -15.176 -44.974  1.00  0.00     0.224 A 
BRANCH  13  21
ATOM     21  O   UNL     1       1.611  -9.611 -45.580  1.00  0.00    -0.486 OA
BRANCH  21  22
ATOM     22  C   UNL     1       2.794  -8.802 -45.636  1.00  0.00     0.201 C 
ATOM     23  C   UNL     1       2.382  -7.433 -46.135  1.00  0.00     0.076 C 
ATOM     24  C   UNL     1       3.305  -8.473 -44.239  1.00  0.00     0.205 C 
ATOM     25  C   UNL     1       1.839  -6.784 -44.881  1.00  0.00     0.164 C 
ATOM     26  O   UNL     1       2.605  -7.298 -43.786  1.00  0.00    -0.377 OA
ENDBRANCH  21  22
ENDBRANCH  13  21
BRANCH  16  27
ATOM     27  N   UNL     1       0.870 -15.356 -42.759  1.00  0.00    -0.340 N 
ATOM     28  H   UNL     1       0.018 -14.811 -42.842  1.00  0.00     0.168 HD
BRANCH  27  29
ATOM     29  C   UNL     1       0.609 -16.689 -42.369  1.00  0.00     0.041 A 
ATOM     30  C   UNL     1      -0.608 -17.278 -42.754  1.00  0.00     0.029 A 
ATOM     31  C   UNL     1       1.456 -17.416 -41.522  1.00  0.00     0.049 A 
ATOM     32  C   UNL     1      -0.941 -18.575 -42.356  1.00  0.00     0.043 A 
ATOM     33  C   UNL     1       1.125 -18.713 -41.121  1.00  0.00     0.078 A 
ATOM     34  C   UNL     1      -0.069 -19.288 -41.544  1.00  0.00     0.141 A 
ATOM     35  Cl  UNL     1       2.199 -19.584 -40.094  1.00  0.00    -0.081 Cl
ATOM     36  F   UNL     1      -0.407 -20.530 -41.169  1.00  0.00    -0.205 F 
ENDBRANCH  27  29
ENDBRANCH  16  27
ENDBRANCH   3  11
TORSDOF 8
ENDMDL
MODEL 5
REMARK minimizedAffinity -7.94225121
REMARK minimizedRMSD -1
REMARK SMILES CN(C)C/C=C/C(=O)Nc1cc2c(Nc3ccc(F)c(Cl)c3)ncnc2cc1O[C@H]1CCOC1
REMARK SMILES IDX 7 1 8 2 9 3 6 5 5 6 4 7 2 8 1 9 3 10 10 11 11 12 28 13 12 14
REMARK SMILES IDX 27 15 13 16 26 17 23 18 25 19 24 20 29 21 30 22 31 23 34 24
REMARK SMILES IDX 32 25 33 26 14 27 15 29 16 30 22 31 17 32 20 33 18 34 21 35
REMARK SMILES IDX 19 36
REMARK H PARENT 9 4 14 28
ROOT
ATOM      1  C   UNL     1       2.354 -14.353 -43.971  1.00  0.00     0.248 C 
ATOM      2  O   UNL     1       1.635 -15.145 -44.569  1.00  0.00    -0.270 OA
ATOM      3  N   UNL     1       3.538 -14.627 -43.333  1.00  0.00    -0.319 N 
ATOM      4  H   UNL     1       4.097 -13.844 -43.010  1.00  0.00     0.170 HD
ENDROOT
BRANCH   1   5
ATOM      5  C   UNL     1       1.992 -12.909 -43.980  1.00  0.00     0.068 C 
ATOM      6  C   UNL     1       0.898 -12.412 -43.378  1.00  0.00    -0.006 C 
BRANCH   6   7
ATOM      7  C   UNL     1       0.390 -10.995 -43.333  1.00  0.00     0.111 C 
BRANCH   7   8
ATOM      8  N   UNL     1      -0.817 -10.590 -44.036  1.00  0.00    -0.306 NA
ATOM      9  C   UNL     1      -0.650 -10.375 -45.465  1.00  0.00     0.105 C 
ATOM     10  C   UNL     1      -1.597  -9.550 -43.384  1.00  0.00     0.105 C 
ENDBRANCH   7   8
ENDBRANCH   6   7
ENDBRANCH   1   5
BRANCH   3  11
ATOM     11  C   UNL     1       4.140 -15.884 -43.116  1.00  0.00     0.085 A 
ATOM     12  C   UNL     1       3.583 -16.876 -42.311  1.00  0.00     0.044 A 
ATOM     13  C   UNL     1       5.373 -16.122 -43.743  1.00  0.00     0.145 A 
ATOM     14  C   UNL     1       4.233 -18.124 -42.132  1.00  0.00     0.045 A 
ATOM     15  C   UNL     1       6.023 -17.342 -43.540  1.00  0.00     0.077 A 
ATOM     16  C   UNL     1       3.738 -19.196 -41.360  1.00  0.00     0.141 A 
ATOM     17  C   UNL     1       5.471 -18.343 -42.751  1.00  0.00     0.080 A 
ATOM     18  N   UNL     1       4.429 -20.340 -41.215  1.00  0.00    -0.219 NA
ATOM     19  N   UNL     1       6.154 -19.482 -42.616  1.00  0.00    -0.236 NA
ATOM     20  C   UNL     1       5.601 -20.427 -41.848  1.00  0.00     0.224 A 
BRANCH  13  21
ATOM     21  O   UNL     1       5.844 -15.090 -44.519  1.00  0.00    -0.486 OA
BRANCH  21  22
ATOM     22  C   UNL     1       7.105 -14.494 -44.186  1.00  0.00     0.201 C 
ATOM     23  C   UNL     1       7.321 -13.333 -45.132  1.00  0.00     0.076 C 
ATOM     24  C   UNL     1       7.040 -13.780 -42.841  1.00  0.00     0.205 C 
ATOM     25  C   UNL     1       6.488 -12.241 -44.497  1.00  0.00     0.164 C 
ATOM     26  O   UNL     1       6.551 -12.446 -43.082  1.00  0.00    -0.377 OA
ENDBRANCH  21  22
ENDBRANCH  13  21
BRANCH  16  27
ATOM     27  N   UNL     1       2.478 -19.056 -40.716  1.00  0.00    -0.340 N 
ATOM     28  H   UNL     1       2.491 -18.230 -40.126  1.00  0.00     0.168 HD
BRANCH  27  29
ATOM     29  C   UNL     1       1.185 -19.326 -41.218  1.00  0.00     0.041 A 
ATOM     30  C   UNL     1       0.453 -18.274 -41.795  1.00  0.00     0.029 A 
ATOM     31  C   UNL     1       0.554 -20.568 -41.069  1.00  0.00     0.049 A 
ATOM     32  C   UNL     1      -0.849 -18.472 -42.263  1.00  0.00     0.043 A 
ATOM     33  C   UNL     1      -0.749 -20.768 -41.536  1.00  0.00     0.078 A 
ATOM     34  C   UNL     1      -1.441 -19.721 -42.135  1.00  0.00     0.141 A 
ATOM     35  Cl  UNL     1      -1.487 -22.313 -41.352  1.00  0.00    -0.081 Cl
ATOM     36  F   UNL     1      -2.692 -19.891 -42.588  1.00  0.00    -0.205 F 
ENDBRANCH  27  29
ENDBRANCH  16  27
ENDBRANCH   3  11
TORSDOF 8
ENDMDL
MODEL 6
REMARK minimizedAffinity -7.92175817
REMARK minimizedRMSD -1
REMARK SMILES CN(C)C/C=C/C(=O)Nc1cc2c(Nc3ccc(F)c(Cl)c3)ncnc2cc1O[C@H]1CCOC1
REMARK SMILES IDX 7 1 8 2 9 3 6 5 5 6 4 7 2 8 1 9 3 10 10 11 11 12 28 13 12 14
REMARK SMILES IDX 27 15 13 16 26 17 23 18 25 19 24 20 29 21 30 22 31 23 34 24
REMARK SMILES IDX 32 25 33 26 14 27 15 29 16 30 22 31 17 32 20 33 18 34 21 35
REMARK SMILES IDX 19 36
REMARK H PARENT 9 4 14 28
ROOT
ATOM      1  C   UNL     1       3.729 -15.536 -43.350  1.00  0.00     0.248 C 
ATOM      2  O   UNL     1       4.154 -16.685 -43.343  1.00  0.00    -0.270 OA
ATOM      3  N   UNL     1       2.430 -15.131 -43.180  1.00  0.00    -0.319 N 
ATOM      4  H   UNL     1       2.250 -14.139 -43.062  1.00  0.00     0.170 HD
ENDROOT
BRANCH   1   5
ATOM      5  C   UNL     1       4.701 -14.414 -43.470  1.00  0.00     0.068 C 
ATOM      6  C   UNL     1       5.708 -14.207 -42.603  1.00  0.00    -0.006 C 
BRANCH   6   7
ATOM      7  C   UNL     1       6.736 -13.106 -42.576  1.00  0.00     0.111 C 
BRANCH   7   8
ATOM      8  N   UNL     1       7.105 -12.430 -41.341  1.00  0.00    -0.306 NA
ATOM      9  C   UNL     1       7.744 -11.136 -41.519  1.00  0.00     0.105 C 
ATOM     10  C   UNL     1       7.759 -13.266 -40.347  1.00  0.00     0.105 C 
ENDBRANCH   7   8
ENDBRANCH   6   7
ENDBRANCH   1   5
BRANCH   3  11
ATOM     11  C   UNL     1       1.274 -15.933 -43.075  1.00  0.00     0.085 A 
ATOM     12  C   UNL     1       1.195 -17.068 -42.270  1.00  0.00     0.044 A 
ATOM     13  C   UNL     1       0.160 -15.559 -43.844  1.00  0.00     0.145 A 
ATOM     14  C   UNL     1       0.004 -17.835 -42.202  1.00  0.00     0.045 A 
ATOM     15  C   UNL     1      -1.000 -16.335 -43.795  1.00  0.00     0.077 A 
ATOM     16  C   UNL     1      -0.181 -18.980 -41.399  1.00  0.00     0.141 A 
ATOM     17  C   UNL     1      -1.095 -17.460 -42.985  1.00  0.00     0.080 A 
ATOM     18  N   UNL     1      -1.334 -19.673 -41.410  1.00  0.00    -0.219 NA
ATOM     19  N   UNL     1      -2.244 -18.140 -42.991  1.00  0.00    -0.236 NA
ATOM     20  C   UNL     1      -2.306 -19.221 -42.205  1.00  0.00     0.224 A 
BRANCH  13  21
ATOM     21  O   UNL     1       0.328 -14.427 -44.604  1.00  0.00    -0.486 OA
BRANCH  21  22
ATOM     22  C   UNL     1       0.828 -14.561 -45.942  1.00  0.00     0.201 C 
ATOM     23  C   UNL     1      -0.296 -14.184 -46.884  1.00  0.00     0.076 C 
ATOM     24  C   UNL     1       1.860 -13.485 -46.257  1.00  0.00     0.205 C 
ATOM     25  C   UNL     1      -0.232 -12.672 -46.872  1.00  0.00     0.164 C 
ATOM     26  O   UNL     1       1.147 -12.320 -46.714  1.00  0.00    -0.377 OA
ENDBRANCH  21  22
ENDBRANCH  13  21
BRANCH  16  27
ATOM     27  N   UNL     1       0.884 -19.413 -40.561  1.00  0.00    -0.340 N 
ATOM     28  H   UNL     1       0.563 -20.179 -39.977  1.00  0.00     0.168 HD
BRANCH  27  29
ATOM     29  C   UNL     1       2.262 -19.514 -40.853  1.00  0.00     0.041 A 
ATOM     30  C   UNL     1       2.692 -20.510 -41.748  1.00  0.00     0.029 A 
ATOM     31  C   UNL     1       3.236 -18.740 -40.208  1.00  0.00     0.049 A 
ATOM     32  C   UNL     1       4.048 -20.687 -42.035  1.00  0.00     0.043 A 
ATOM     33  C   UNL     1       4.594 -18.916 -40.493  1.00  0.00     0.078 A 
ATOM     34  C   UNL     1       4.991 -19.884 -41.408  1.00  0.00     0.141 A 
ATOM     35  Cl  UNL     1       5.762 -17.934 -39.695  1.00  0.00    -0.081 Cl
ATOM     36  F   UNL     1       6.288 -20.071 -41.694  1.00  0.00    -0.205 F 
ENDBRANCH  27  29
ENDBRANCH  16  27
ENDBRANCH   3  11
TORSDOF 8
ENDMDL
MODEL 7
REMARK minimizedAffinity -7.7729063
REMARK minimizedRMSD -1
REMARK SMILES CN(C)C/C=C/C(=O)Nc1cc2c(Nc3ccc(F)c(Cl)c3)ncnc2cc1O[C@H]1CCOC1
REMARK SMILES IDX 7 1 8 2 9 3 6 5 5 6 4 7 2 8 1 9 3 10 10 11 11 12 28 13 12 14
REMARK SMILES IDX 27 15 13 16 26 17 23 18 25 19 24 20 29 21 30 22 31 23 34 24
REMARK SMILES IDX 32 25 33 26 14 27 15 29 16 30 22 31 17 32 20 33 18 34 21 35
REMARK SMILES IDX 19 36
REMARK H PARENT 9 4 14 28
ROOT
ATOM      1  C   UNL     1       3.004 -15.163 -43.608  1.00  0.00     0.248 C 
ATOM      2  O   UNL     1       3.746 -16.133 -43.506  1.00  0.00    -0.270 OA
ATOM      3  N   UNL     1       1.647 -15.132 -43.410  1.00  0.00    -0.319 N 
ATOM      4  H   UNL     1       1.188 -14.228 -43.384  1.00  0.00     0.170 HD
ENDROOT
BRANCH   1   5
ATOM      5  C   UNL     1       3.602 -13.830 -43.894  1.00  0.00     0.068 C 
ATOM      6  C   UNL     1       3.224 -13.050 -44.921  1.00  0.00    -0.006 C 
BRANCH   6   7
ATOM      7  C   UNL     1       3.757 -11.708 -45.351  1.00  0.00     0.111 C 
BRANCH   7   8
ATOM      8  N   UNL     1       2.885 -10.670 -45.882  1.00  0.00    -0.306 NA
ATOM      9  C   UNL     1       3.321  -9.308 -45.613  1.00  0.00     0.105 C 
ATOM     10  C   UNL     1       1.464 -10.876 -45.655  1.00  0.00     0.105 C 
ENDBRANCH   7   8
ENDBRANCH   6   7
ENDBRANCH   1   5
BRANCH   3  11
ATOM     11  C   UNL     1       0.779 -16.217 -43.160  1.00  0.00     0.085 A 
ATOM     12  C   UNL     1       1.036 -17.207 -42.214  1.00  0.00     0.044 A 
ATOM     13  C   UNL     1      -0.394 -16.291 -43.928  1.00  0.00     0.145 A 
ATOM     14  C   UNL     1       0.124 -18.273 -42.004  1.00  0.00     0.045 A 
ATOM     15  C   UNL     1      -1.274 -17.358 -43.738  1.00  0.00     0.077 A 
ATOM     16  C   UNL     1       0.283 -19.304 -41.054  1.00  0.00     0.141 A 
ATOM     17  C   UNL     1      -1.035 -18.344 -42.787  1.00  0.00     0.080 A 
ATOM     18  N   UNL     1      -0.614 -20.299 -40.934  1.00  0.00    -0.219 NA
ATOM     19  N   UNL     1      -1.932 -19.325 -42.664  1.00  0.00    -0.236 NA
ATOM     20  C   UNL     1      -1.675 -20.261 -41.745  1.00  0.00     0.224 A 
BRANCH  13  21
ATOM     21  O   UNL     1      -0.565 -15.271 -44.834  1.00  0.00    -0.486 OA
BRANCH  21  22
ATOM     22  C   UNL     1      -0.828 -15.601 -46.205  1.00  0.00     0.201 C 
ATOM     23  C   UNL     1      -0.533 -14.367 -47.031  1.00  0.00     0.076 C 
ATOM     24  C   UNL     1       0.207 -16.581 -46.745  1.00  0.00     0.205 C 
ATOM     25  C   UNL     1       0.972 -14.425 -47.169  1.00  0.00     0.164 C 
ATOM     26  O   UNL     1       1.329 -15.810 -47.217  1.00  0.00    -0.377 OA
ENDBRANCH  21  22
ENDBRANCH  13  21
BRANCH  16  27
ATOM     27  N   UNL     1       1.425 -19.291 -40.208  1.00  0.00    -0.340 N 
ATOM     28  H   UNL     1       1.210 -19.777 -39.343  1.00  0.00     0.168 HD
BRANCH  27  29
ATOM     29  C   UNL     1       2.791 -19.406 -40.553  1.00  0.00     0.041 A 
ATOM     30  C   UNL     1       3.722 -18.573 -39.908  1.00  0.00     0.029 A 
ATOM     31  C   UNL     1       3.248 -20.233 -41.588  1.00  0.00     0.049 A 
ATOM     32  C   UNL     1       5.077 -18.609 -40.245  1.00  0.00     0.043 A 
ATOM     33  C   UNL     1       4.604 -20.270 -41.927  1.00  0.00     0.078 A 
ATOM     34  C   UNL     1       5.512 -19.462 -41.250  1.00  0.00     0.141 A 
ATOM     35  Cl  UNL     1       5.134 -21.313 -43.191  1.00  0.00    -0.081 Cl
ATOM     36  F   UNL     1       6.816 -19.481 -41.561  1.00  0.00    -0.205 F 
ENDBRANCH  27  29
ENDBRANCH  16  27
ENDBRANCH   3  11
TORSDOF 8
ENDMDL
MODEL 8
REMARK minimizedAffinity -7.69104099
REMARK minimizedRMSD -1
REMARK SMILES CN(C)C/C=C/C(=O)Nc1cc2c(Nc3ccc(F)c(Cl)c3)ncnc2cc1O[C@H]1CCOC1
REMARK SMILES IDX 7 1 8 2 9 3 6 5 5 6 4 7 2 8 1 9 3 10 10 11 11 12 28 13 12 14
REMARK SMILES IDX 27 15 13 16 26 17 23 18 25 19 24 20 29 21 30 22 31 23 34 24
REMARK SMILES IDX 32 25 33 26 14 27 15 29 16 30 22 31 17 32 20 33 18 34 21 35
REMARK SMILES IDX 19 36
REMARK H PARENT 9 4 14 28
ROOT
ATOM      1  C   UNL     1       0.462 -11.080 -43.348  1.00  0.00     0.248 C 
ATOM      2  O   UNL     1       1.539 -10.584 -43.039  1.00  0.00    -0.270 OA
ATOM      3  N   UNL     1      -0.592 -10.457 -43.966  1.00  0.00    -0.319 N 
ATOM      4  H   UNL     1      -1.361 -11.031 -44.293  1.00  0.00     0.170 HD
ENDROOT
BRANCH   1   5
ATOM      5  C   UNL     1       0.256 -12.538 -43.126  1.00  0.00     0.068 C 
ATOM      6  C   UNL     1       0.810 -13.493 -43.893  1.00  0.00    -0.006 C 
BRANCH   6   7
ATOM      7  C   UNL     1       0.664 -14.990 -43.812  1.00  0.00     0.111 C 
BRANCH   7   8
ATOM      8  N   UNL     1      -0.540 -15.670 -44.263  1.00  0.00    -0.306 NA
ATOM      9  C   UNL     1      -1.045 -16.688 -43.355  1.00  0.00     0.105 C 
ATOM     10  C   UNL     1      -0.532 -16.091 -45.655  1.00  0.00     0.105 C 
ENDBRANCH   7   8
ENDBRANCH   6   7
ENDBRANCH   1   5
BRANCH   3  11
ATOM     11  C   UNL     1      -0.730  -9.088 -44.282  1.00  0.00     0.085 A 
ATOM     12  C   UNL     1       0.303  -8.310 -44.801  1.00  0.00     0.044 A 
ATOM     13  C   UNL     1      -1.980  -8.496 -44.038  1.00  0.00     0.145 A 
ATOM     14  C   UNL     1       0.104  -6.938 -45.103  1.00  0.00     0.045 A 
ATOM     15  C   UNL     1      -2.161  -7.139 -44.310  1.00  0.00     0.077 A 
ATOM     16  C   UNL     1       1.076  -6.078 -45.654  1.00  0.00     0.141 A 
ATOM     17  C   UNL     1      -1.143  -6.356 -44.841  1.00  0.00     0.080 A 
ATOM     18  N   UNL     1       0.820  -4.778 -45.886  1.00  0.00    -0.219 NA
ATOM     19  N   UNL     1      -1.403  -5.068 -45.079  1.00  0.00    -0.236 NA
ATOM     20  C   UNL     1      -0.404  -4.338 -45.586  1.00  0.00     0.224 A 
BRANCH  13  21
ATOM     21  O   UNL     1      -2.937  -9.340 -43.529  1.00  0.00    -0.486 OA
BRANCH  21  22
ATOM     22  C   UNL     1      -4.245  -9.336 -44.118  1.00  0.00     0.201 C 
ATOM     23  C   UNL     1      -4.794 -10.743 -44.010  1.00  0.00     0.076 C 
ATOM     24  C   UNL     1      -5.236  -8.558 -43.259  1.00  0.00     0.205 C 
ATOM     25  C   UNL     1      -5.294 -10.784 -42.582  1.00  0.00     0.164 C 
ATOM     26  O   UNL     1      -5.758  -9.467 -42.270  1.00  0.00    -0.377 OA
ENDBRANCH  21  22
ENDBRANCH  13  21
BRANCH  16  27
ATOM     27  N   UNL     1       2.362  -6.600 -45.965  1.00  0.00    -0.340 N 
ATOM     28  H   UNL     1       2.674  -6.221 -46.853  1.00  0.00     0.168 HD
BRANCH  27  29
ATOM     29  C   UNL     1       3.444  -6.878 -45.099  1.00  0.00     0.041 A 
ATOM     30  C   UNL     1       4.605  -7.459 -45.637  1.00  0.00     0.029 A 
ATOM     31  C   UNL     1       3.372  -6.706 -43.711  1.00  0.00     0.049 A 
ATOM     32  C   UNL     1       5.686  -7.801 -44.821  1.00  0.00     0.043 A 
ATOM     33  C   UNL     1       4.452  -7.048 -42.892  1.00  0.00     0.078 A 
ATOM     34  C   UNL     1       5.605  -7.589 -43.451  1.00  0.00     0.141 A 
ATOM     35  Cl  UNL     1       4.337  -6.804 -41.190  1.00  0.00    -0.081 Cl
ATOM     36  F   UNL     1       6.651  -7.925 -42.683  1.00  0.00    -0.205 F 
ENDBRANCH  27  29
ENDBRANCH  16  27
ENDBRANCH   3  11
TORSDOF 8
ENDMDL
MODEL 9
REMARK minimizedAffinity -7.66962242
REMARK minimizedRMSD -1
REMARK SMILES CN(C)C/C=C/C(=O)Nc1cc2c(Nc3ccc(F)c(Cl)c3)ncnc2cc1O[C@H]1CCOC1
REMARK SMILES IDX 7 1 8 2 9 3 6 5 5 6 4 7 2 8 1 9 3 10 10 11 11 12 28 13 12 14
REMARK SMILES IDX 27 15 13 16 26 17 23 18 25 19 24 20 29 21 30 22 31 23 34 24
REMARK SMILES IDX 32 25 33 26 14 27 15 29 16 30 22 31 17 32 20 33 18 34 21 35
REMARK SMILES IDX 19 36
REMARK H PARENT 9 4 14 28
ROOT
ATOM      1  C   UNL     1       6.115 -16.494 -44.618  1.00  0.00     0.248 C 
ATOM      2  O   UNL     1       5.431 -17.051 -45.469  1.00  0.00    -0.270 OA
ATOM      3  N   UNL     1       6.125 -16.743 -43.269  1.00  0.00    -0.319 N 
ATOM      4  H   UNL     1       6.850 -16.308 -42.709  1.00  0.00     0.170 HD
ENDROOT
BRANCH   1   5
ATOM      5  C   UNL     1       7.123 -15.489 -45.055  1.00  0.00     0.068 C 
ATOM      6  C   UNL     1       7.234 -14.263 -44.514  1.00  0.00    -0.006 C 
BRANCH   6   7
ATOM      7  C   UNL     1       8.171 -13.140 -44.873  1.00  0.00     0.111 C 
BRANCH   7   8
ATOM      8  N   UNL     1       9.536 -13.089 -44.370  1.00  0.00    -0.306 NA
ATOM      9  C   UNL     1      10.498 -13.874 -45.128  1.00  0.00     0.105 C 
ATOM     10  C   UNL     1       9.673 -13.242 -42.930  1.00  0.00     0.105 C 
ENDBRANCH   7   8
ENDBRANCH   6   7
ENDBRANCH   1   5
BRANCH   3  11
ATOM     11  C   UNL     1       5.279 -17.602 -42.536  1.00  0.00     0.085 A 
ATOM     12  C   UNL     1       3.968 -17.282 -42.191  1.00  0.00     0.044 A 
ATOM     13  C   UNL     1       5.814 -18.835 -42.129  1.00  0.00     0.145 A 
ATOM     14  C   UNL     1       3.163 -18.188 -41.454  1.00  0.00     0.045 A 
ATOM     15  C   UNL     1       5.027 -19.711 -41.378  1.00  0.00     0.077 A 
ATOM     16  C   UNL     1       1.820 -17.966 -41.082  1.00  0.00     0.141 A 
ATOM     17  C   UNL     1       3.713 -19.408 -41.041  1.00  0.00     0.080 A 
ATOM     18  N   UNL     1       1.131 -18.864 -40.356  1.00  0.00    -0.219 NA
ATOM     19  N   UNL     1       3.028 -20.306 -40.329  1.00  0.00    -0.236 NA
ATOM     20  C   UNL     1       1.767 -19.987 -40.015  1.00  0.00     0.224 A 
BRANCH  13  21
ATOM     21  O   UNL     1       7.112 -19.066 -42.516  1.00  0.00    -0.486 OA
BRANCH  21  22
ATOM     22  C   UNL     1       7.451 -20.345 -43.069  1.00  0.00     0.201 C 
ATOM     23  C   UNL     1       6.880 -20.397 -44.470  1.00  0.00     0.076 C 
ATOM     24  C   UNL     1       8.946 -20.447 -43.348  1.00  0.00     0.205 C 
ATOM     25  C   UNL     1       7.913 -19.631 -45.268  1.00  0.00     0.164 C 
ATOM     26  O   UNL     1       9.181 -19.894 -44.658  1.00  0.00    -0.377 OA
ENDBRANCH  21  22
ENDBRANCH  13  21
BRANCH  16  27
ATOM     27  N   UNL     1       1.186 -16.758 -41.481  1.00  0.00    -0.340 N 
ATOM     28  H   UNL     1       1.671 -15.969 -41.065  1.00  0.00     0.168 HD
BRANCH  27  29
ATOM     29  C   UNL     1       0.606 -16.425 -42.725  1.00  0.00     0.041 A 
ATOM     30  C   UNL     1      -0.578 -17.075 -43.114  1.00  0.00     0.029 A 
ATOM     31  C   UNL     1       1.215 -15.558 -43.642  1.00  0.00     0.049 A 
ATOM     32  C   UNL     1      -1.168 -16.822 -44.355  1.00  0.00     0.043 A 
ATOM     33  C   UNL     1       0.628 -15.303 -44.885  1.00  0.00     0.078 A 
ATOM     34  C   UNL     1      -0.563 -15.932 -45.232  1.00  0.00     0.141 A 
ATOM     35  Cl  UNL     1       1.394 -14.217 -45.979  1.00  0.00    -0.081 Cl
ATOM     36  F   UNL     1      -1.143 -15.703 -46.420  1.00  0.00    -0.205 F 
ENDBRANCH  27  29
ENDBRANCH  16  27
ENDBRANCH   3  11
TORSDOF 8
ENDMDL
MODEL 10
REMARK minimizedAffinity -7.66196966
REMARK minimizedRMSD -1
REMARK SMILES CN(C)C/C=C/C(=O)Nc1cc2c(Nc3ccc(F)c(Cl)c3)ncnc2cc1O[C@H]1CCOC1
REMARK SMILES IDX 7 1 8 2 9 3 6 5 5 6 4 7 2 8 1 9 3 10 10 11 11 12 28 13 12 14
REMARK SMILES IDX 27 15 13 16 26 17 23 18 25 19 24 20 29 21 30 22 31 23 34 24
REMARK SMILES IDX 32 25 33 26 14 27 15 29 16 30 22 31 17 32 20 33 18 34 21 35
REMARK SMILES IDX 19 36
REMARK H PARENT 9 4 14 28
ROOT
ATOM      1  C   UNL     1       5.266 -15.763 -42.682  1.00  0.00     0.248 C 
ATOM      2  O   UNL     1       4.809 -15.792 -43.819  1.00  0.00    -0.270 OA
ATOM      3  N   UNL     1       4.945 -16.593 -41.637  1.00  0.00    -0.319 N 
ATOM      4  H   UNL     1       5.512 -16.545 -40.797  1.00  0.00     0.170 HD
ENDROOT
BRANCH   1   5
ATOM      5  C   UNL     1       6.352 -14.793 -42.371  1.00  0.00     0.068 C 
ATOM      6  C   UNL     1       7.237 -14.963 -41.373  1.00  0.00    -0.006 C 
BRANCH   6   7
ATOM      7  C   UNL     1       8.356 -14.061 -40.922  1.00  0.00     0.111 C 
BRANCH   7   8
ATOM      8  N   UNL     1       8.133 -12.971 -39.984  1.00  0.00    -0.306 NA
ATOM      9  C   UNL     1       7.638 -13.380 -38.678  1.00  0.00     0.105 C 
ATOM     10  C   UNL     1       7.439 -11.815 -40.527  1.00  0.00     0.105 C 
ENDBRANCH   7   8
ENDBRANCH   6   7
ENDBRANCH   1   5
BRANCH   3  11
ATOM     11  C   UNL     1       3.944 -17.586 -41.591  1.00  0.00     0.085 A 
ATOM     12  C   UNL     1       2.585 -17.318 -41.744  1.00  0.00     0.044 A 
ATOM     13  C   UNL     1       4.361 -18.907 -41.361  1.00  0.00     0.145 A 
ATOM     14  C   UNL     1       1.623 -18.360 -41.691  1.00  0.00     0.045 A 
ATOM     15  C   UNL     1       3.407 -19.924 -41.280  1.00  0.00     0.077 A 
ATOM     16  C   UNL     1       0.233 -18.192 -41.860  1.00  0.00     0.141 A 
ATOM     17  C   UNL     1       2.050 -19.671 -41.446  1.00  0.00     0.080 A 
ATOM     18  N   UNL     1      -0.620 -19.228 -41.767  1.00  0.00    -0.219 NA
ATOM     19  N   UNL     1       1.207 -20.702 -41.362  1.00  0.00    -0.236 NA
ATOM     20  C   UNL     1      -0.093 -20.429 -41.521  1.00  0.00     0.224 A 
BRANCH  13  21
ATOM     21  O   UNL     1       5.717 -19.077 -41.225  1.00  0.00    -0.486 OA
BRANCH  21  22
ATOM     22  C   UNL     1       6.510 -19.279 -42.403  1.00  0.00     0.201 C 
ATOM     23  C   UNL     1       7.899 -18.754 -42.108  1.00  0.00     0.076 C 
ATOM     24  C   UNL     1       6.790 -20.760 -42.634  1.00  0.00     0.205 C 
ATOM     25  C   UNL     1       8.519 -19.898 -41.336  1.00  0.00     0.164 C 
ATOM     26  O   UNL     1       7.961 -21.104 -41.869  1.00  0.00    -0.377 OA
ENDBRANCH  21  22
ENDBRANCH  13  21
BRANCH  16  27
ATOM     27  N   UNL     1      -0.276 -16.892 -42.131  1.00  0.00    -0.340 N 
ATOM     28  H   UNL     1      -0.322 -16.362 -41.266  1.00  0.00     0.168 HD
BRANCH  27  29
ATOM     29  C   UNL     1      -0.047 -16.061 -43.250  1.00  0.00     0.041 A 
ATOM     30  C   UNL     1       0.361 -14.733 -43.031  1.00  0.00     0.029 A 
ATOM     31  C   UNL     1      -0.313 -16.462 -44.565  1.00  0.00     0.049 A 
ATOM     32  C   UNL     1       0.554 -13.852 -44.098  1.00  0.00     0.043 A 
ATOM     33  C   UNL     1      -0.122 -15.582 -45.634  1.00  0.00     0.078 A 
ATOM     34  C   UNL     1       0.316 -14.284 -45.396  1.00  0.00     0.141 A 
ATOM     35  Cl  UNL     1      -0.441 -16.116 -47.240  1.00  0.00    -0.081 Cl
ATOM     36  F   UNL     1       0.505 -13.423 -46.407  1.00  0.00    -0.205 F 
ENDBRANCH  27  29
ENDBRANCH  16  27
ENDBRANCH   3  11
TORSDOF 8
ENDMDL
MODEL 11
REMARK minimizedAffinity -7.63108921
REMARK minimizedRMSD -1
REMARK SMILES CN(C)C/C=C/C(=O)Nc1cc2c(Nc3ccc(F)c(Cl)c3)ncnc2cc1O[C@H]1CCOC1
REMARK SMILES IDX 7 1 8 2 9 3 6 5 5 6 4 7 2 8 1 9 3 10 10 11 11 12 28 13 12 14
REMARK SMILES IDX 27 15 13 16 26 17 23 18 25 19 24 20 29 21 30 22 31 23 34 24
REMARK SMILES IDX 32 25 33 26 14 27 15 29 16 30 22 31 17 32 20 33 18 34 21 35
REMARK SMILES IDX 19 36
REMARK H PARENT 9 4 14 28
ROOT
ATOM      1  C   UNL     1       0.687 -11.176 -43.960  1.00  0.00     0.248 C 
ATOM      2  O   UNL     1       1.031 -10.811 -42.842  1.00  0.00    -0.270 OA
ATOM      3  N   UNL     1       0.662 -10.425 -45.107  1.00  0.00    -0.319 N 
ATOM      4  H   UNL     1       0.496 -10.902 -45.987  1.00  0.00     0.170 HD
ENDROOT
BRANCH   1   5
ATOM      5  C   UNL     1       0.328 -12.607 -44.167  1.00  0.00     0.068 C 
ATOM      6  C   UNL     1       0.711 -13.597 -43.342  1.00  0.00    -0.006 C 
BRANCH   6   7
ATOM      7  C   UNL     1       0.457 -15.078 -43.442  1.00  0.00     0.111 C 
BRANCH   7   8
ATOM      8  N   UNL     1      -0.669 -15.615 -44.191  1.00  0.00    -0.306 NA
ATOM      9  C   UNL     1      -1.439 -16.633 -43.493  1.00  0.00     0.105 C 
ATOM     10  C   UNL     1      -0.389 -15.952 -45.577  1.00  0.00     0.105 C 
ENDBRANCH   7   8
ENDBRANCH   6   7
ENDBRANCH   1   5
BRANCH   3  11
ATOM     11  C   UNL     1       0.910  -9.043 -45.248  1.00  0.00     0.085 A 
ATOM     12  C   UNL     1       2.180  -8.505 -45.446  1.00  0.00     0.044 A 
ATOM     13  C   UNL     1      -0.195  -8.180 -45.167  1.00  0.00     0.145 A 
ATOM     14  C   UNL     1       2.368  -7.106 -45.584  1.00  0.00     0.045 A 
ATOM     15  C   UNL     1       0.000  -6.802 -45.274  1.00  0.00     0.077 A 
ATOM     16  C   UNL     1       3.607  -6.471 -45.813  1.00  0.00     0.141 A 
ATOM     17  C   UNL     1       1.260  -6.255 -45.486  1.00  0.00     0.080 A 
ATOM     18  N   UNL     1       3.709  -5.133 -45.905  1.00  0.00    -0.219 NA
ATOM     19  N   UNL     1       1.357  -4.927 -45.585  1.00  0.00    -0.236 NA
ATOM     20  C   UNL     1       2.582  -4.428 -45.785  1.00  0.00     0.224 A 
BRANCH  13  21
ATOM     21  O   UNL     1      -1.407  -8.799 -44.973  1.00  0.00    -0.486 OA
BRANCH  21  22
ATOM     22  C   UNL     1      -2.091  -8.604 -43.728  1.00  0.00     0.201 C 
ATOM     23  C   UNL     1      -3.280  -7.707 -44.001  1.00  0.00     0.076 C 
ATOM     24  C   UNL     1      -2.778  -9.885 -43.268  1.00  0.00     0.205 C 
ATOM     25  C   UNL     1      -4.296  -8.681 -44.558  1.00  0.00     0.164 C 
ATOM     26  O   UNL     1      -4.075  -9.930 -43.896  1.00  0.00    -0.377 OA
ENDBRANCH  21  22
ENDBRANCH  13  21
BRANCH  16  27
ATOM     27  N   UNL     1       4.777  -7.269 -45.943  1.00  0.00    -0.340 N 
ATOM     28  H   UNL     1       5.393  -6.853 -46.635  1.00  0.00     0.168 HD
BRANCH  27  29
ATOM     29  C   UNL     1       5.495  -7.966 -44.946  1.00  0.00     0.041 A 
ATOM     30  C   UNL     1       5.605  -7.393 -43.668  1.00  0.00     0.029 A 
ATOM     31  C   UNL     1       6.199  -9.151 -45.202  1.00  0.00     0.049 A 
ATOM     32  C   UNL     1       6.344  -8.014 -42.658  1.00  0.00     0.043 A 
ATOM     33  C   UNL     1       6.940  -9.774 -44.194  1.00  0.00     0.078 A 
ATOM     34  C   UNL     1       7.004  -9.205 -42.926  1.00  0.00     0.141 A 
ATOM     35  Cl  UNL     1       7.777 -11.239 -44.538  1.00  0.00    -0.081 Cl
ATOM     36  F   UNL     1       7.711  -9.785 -41.946  1.00  0.00    -0.205 F 
ENDBRANCH  27  29
ENDBRANCH  16  27
ENDBRANCH   3  11
TORSDOF 8
ENDMDL
MODEL 12
REMARK minimizedAffinity -7.59407663
REMARK minimizedRMSD -1
REMARK SMILES CN(C)C/C=C/C(=O)Nc1cc2c(Nc3ccc(F)c(Cl)c3)ncnc2cc1O[C@H]1CCOC1
REMARK SMILES IDX 7 1 8 2 9 3 6 5 5 6 4 7 2 8 1 9 3 10 10 11 11 12 28 13 12 14
REMARK SMILES IDX 27 15 13 16 26 17 23 18 25 19 24 20 29 21 30 22 31 23 34 24
REMARK SMILES IDX 32 25 33 26 14 27 15 29 16 30 22 31 17 32 20 33 18 34 21 35
REMARK SMILES IDX 19 36
REMARK H PARENT 9 4 14 28
ROOT
ATOM      1  C   UNL     1       0.194 -10.505 -44.249  1.00  0.00     0.248 C 
ATOM      2  O   UNL     1       0.578 -10.362 -43.094  1.00  0.00    -0.270 OA
ATOM      3  N   UNL     1       0.886 -11.076 -45.288  1.00  0.00    -0.319 N 
ATOM      4  H   UNL     1       0.385 -11.261 -46.151  1.00  0.00     0.170 HD
ENDROOT
BRANCH   1   5
ATOM      5  C   UNL     1      -1.199 -10.110 -44.596  1.00  0.00     0.068 C 
ATOM      6  C   UNL     1      -2.132  -9.796 -43.681  1.00  0.00    -0.006 C 
BRANCH   6   7
ATOM      7  C   UNL     1      -3.577  -9.416 -43.879  1.00  0.00     0.111 C 
BRANCH   7   8
ATOM      8  N   UNL     1      -4.618  -9.857 -42.964  1.00  0.00    -0.306 NA
ATOM      9  C   UNL     1      -5.276 -11.100 -43.337  1.00  0.00     0.105 C 
ATOM     10  C   UNL     1      -5.544  -8.822 -42.531  1.00  0.00     0.105 C 
ENDBRANCH   7   8
ENDBRANCH   6   7
ENDBRANCH   1   5
BRANCH   3  11
ATOM     11  C   UNL     1       2.225 -11.521 -45.302  1.00  0.00     0.085 A 
ATOM     12  C   UNL     1       3.321 -10.662 -45.372  1.00  0.00     0.044 A 
ATOM     13  C   UNL     1       2.442 -12.907 -45.259  1.00  0.00     0.145 A 
ATOM     14  C   UNL     1       4.646 -11.167 -45.380  1.00  0.00     0.045 A 
ATOM     15  C   UNL     1       3.748 -13.399 -45.297  1.00  0.00     0.077 A 
ATOM     16  C   UNL     1       5.816 -10.380 -45.421  1.00  0.00     0.141 A 
ATOM     17  C   UNL     1       4.849 -12.553 -45.352  1.00  0.00     0.080 A 
ATOM     18  N   UNL     1       7.040 -10.935 -45.455  1.00  0.00    -0.219 NA
ATOM     19  N   UNL     1       6.063 -13.106 -45.376  1.00  0.00    -0.236 NA
ATOM     20  C   UNL     1       7.104 -12.268 -45.433  1.00  0.00     0.224 A 
BRANCH  13  21
ATOM     21  O   UNL     1       1.304 -13.675 -45.189  1.00  0.00    -0.486 OA
BRANCH  21  22
ATOM     22  C   UNL     1       1.437 -15.102 -45.115  1.00  0.00     0.201 C 
ATOM     23  C   UNL     1       1.268 -15.496 -43.664  1.00  0.00     0.076 C 
ATOM     24  C   UNL     1       0.246 -15.802 -45.760  1.00  0.00     0.205 C 
ATOM     25  C   UNL     1      -0.237 -15.497 -43.504  1.00  0.00     0.164 C 
ATOM     26  O   UNL     1      -0.784 -15.914 -44.759  1.00  0.00    -0.377 OA
ENDBRANCH  21  22
ENDBRANCH  13  21
BRANCH  16  27
ATOM     27  N   UNL     1       5.692  -8.963 -45.432  1.00  0.00    -0.340 N 
ATOM     28  H   UNL     1       5.478  -8.651 -46.374  1.00  0.00     0.168 HD
BRANCH  27  29
ATOM     29  C   UNL     1       5.136  -8.109 -44.454  1.00  0.00     0.041 A 
ATOM     30  C   UNL     1       5.623  -8.186 -43.137  1.00  0.00     0.029 A 
ATOM     31  C   UNL     1       4.045  -7.267 -44.708  1.00  0.00     0.049 A 
ATOM     32  C   UNL     1       5.076  -7.401 -42.118  1.00  0.00     0.043 A 
ATOM     33  C   UNL     1       3.496  -6.482 -43.690  1.00  0.00     0.078 A 
ATOM     34  C   UNL     1       4.018  -6.549 -42.402  1.00  0.00     0.141 A 
ATOM     35  Cl  UNL     1       2.168  -5.444 -44.043  1.00  0.00    -0.081 Cl
ATOM     36  F   UNL     1       3.504  -5.805 -41.412  1.00  0.00    -0.205 F 
ENDBRANCH  27  29
ENDBRANCH  16  27
ENDBRANCH   3  11
TORSDOF 8
ENDMDL
MODEL 13
REMARK minimizedAffinity -7.54556322
REMARK minimizedRMSD -1
REMARK SMILES CN(C)C/C=C/C(=O)Nc1cc2c(Nc3ccc(F)c(Cl)c3)ncnc2cc1O[C@H]1CCOC1
REMARK SMILES IDX 7 1 8 2 9 3 6 5 5 6 4 7 2 8 1 9 3 10 10 11 11 12 28 13 12 14
REMARK SMILES IDX 27 15 13 16 26 17 23 18 25 19 24 20 29 21 30 22 31 23 34 24
REMARK SMILES IDX 32 25 33 26 14 27 15 29 16 30 22 31 17 32 20 33 18 34 21 35
REMARK SMILES IDX 19 36
REMARK H PARENT 9 4 14 28
ROOT
ATOM      1  C   UNL     1       2.644 -14.303 -44.255  1.00  0.00     0.248 C 
ATOM      2  O   UNL     1       2.233 -14.993 -45.180  1.00  0.00    -0.270 OA
ATOM      3  N   UNL     1       3.615 -14.631 -43.343  1.00  0.00    -0.319 N 
ATOM      4  H   UNL     1       3.955 -13.902 -42.725  1.00  0.00     0.170 HD
ENDROOT
BRANCH   1   5
ATOM      5  C   UNL     1       2.126 -12.914 -44.112  1.00  0.00     0.068 C 
ATOM      6  C   UNL     1       2.308 -11.954 -45.035  1.00  0.00    -0.006 C 
BRANCH   6   7
ATOM      7  C   UNL     1       1.877 -10.511 -45.013  1.00  0.00     0.111 C 
BRANCH   7   8
ATOM      8  N   UNL     1       2.841  -9.422 -45.035  1.00  0.00    -0.306 NA
ATOM      9  C   UNL     1       2.261  -8.089 -44.981  1.00  0.00     0.105 C 
ATOM     10  C   UNL     1       3.900  -9.550 -46.024  1.00  0.00     0.105 C 
ENDBRANCH   7   8
ENDBRANCH   6   7
ENDBRANCH   1   5
BRANCH   3  11
ATOM     11  C   UNL     1       4.277 -15.867 -43.183  1.00  0.00     0.085 A 
ATOM     12  C   UNL     1       3.818 -16.885 -42.349  1.00  0.00     0.044 A 
ATOM     13  C   UNL     1       5.469 -16.054 -43.901  1.00  0.00     0.145 A 
ATOM     14  C   UNL     1       4.526 -18.109 -42.231  1.00  0.00     0.045 A 
ATOM     15  C   UNL     1       6.177 -17.249 -43.758  1.00  0.00     0.077 A 
ATOM     16  C   UNL     1       4.128 -19.204 -41.436  1.00  0.00     0.141 A 
ATOM     17  C   UNL     1       5.721 -18.277 -42.940  1.00  0.00     0.080 A 
ATOM     18  N   UNL     1       4.870 -20.323 -41.353  1.00  0.00    -0.219 NA
ATOM     19  N   UNL     1       6.455 -19.390 -42.868  1.00  0.00    -0.236 NA
ATOM     20  C   UNL     1       5.995 -20.361 -42.071  1.00  0.00     0.224 A 
BRANCH  13  21
ATOM     21  O   UNL     1       5.843 -14.999 -44.699  1.00  0.00    -0.486 OA
BRANCH  21  22
ATOM     22  C   UNL     1       7.083 -14.332 -44.427  1.00  0.00     0.201 C 
ATOM     23  C   UNL     1       7.122 -13.083 -45.281  1.00  0.00     0.076 C 
ATOM     24  C   UNL     1       7.095 -13.739 -43.023  1.00  0.00     0.205 C 
ATOM     25  C   UNL     1       6.276 -12.118 -44.479  1.00  0.00     0.164 C 
ATOM     26  O   UNL     1       6.489 -12.434 -43.099  1.00  0.00    -0.377 OA
ENDBRANCH  21  22
ENDBRANCH  13  21
BRANCH  16  27
ATOM     27  N   UNL     1       2.915 -19.117 -40.700  1.00  0.00    -0.340 N 
ATOM     28  H   UNL     1       2.929 -18.280 -40.125  1.00  0.00     0.168 HD
BRANCH  27  29
ATOM     29  C   UNL     1       1.604 -19.462 -41.098  1.00  0.00     0.041 A 
ATOM     30  C   UNL     1       1.259 -20.822 -41.176  1.00  0.00     0.029 A 
ATOM     31  C   UNL     1       0.664 -18.516 -41.528  1.00  0.00     0.049 A 
ATOM     32  C   UNL     1      -0.007 -21.223 -41.612  1.00  0.00     0.043 A 
ATOM     33  C   UNL     1      -0.603 -18.914 -41.965  1.00  0.00     0.078 A 
ATOM     34  C   UNL     1      -0.933 -20.265 -42.000  1.00  0.00     0.141 A 
ATOM     35  Cl  UNL     1      -1.740 -17.722 -42.468  1.00  0.00    -0.081 Cl
ATOM     36  F   UNL     1      -2.142 -20.668 -42.417  1.00  0.00    -0.205 F 
ENDBRANCH  27  29
ENDBRANCH  16  27
ENDBRANCH   3  11
TORSDOF 8
ENDMDL
MODEL 14
REMARK minimizedAffinity -7.48600578
REMARK minimizedRMSD -1
REMARK SMILES CN(C)C/C=C/C(=O)Nc1cc2c(Nc3ccc(F)c(Cl)c3)ncnc2cc1O[C@H]1CCOC1
REMARK SMILES IDX 7 1 8 2 9 3 6 5 5 6 4 7 2 8 1 9 3 10 10 11 11 12 28 13 12 14
REMARK SMILES IDX 27 15 13 16 26 17 23 18 25 19 24 20 29 21 30 22 31 23 34 24
REMARK SMILES IDX 32 25 33 26 14 27 15 29 16 30 22 31 17 32 20 33 18 34 21 35
REMARK SMILES IDX 19 36
REMARK H PARENT 9 4 14 28
ROOT
ATOM      1  C   UNL     1       7.698 -13.193 -40.536  1.00  0.00     0.248 C 
ATOM      2  O   UNL     1       8.329 -13.561 -39.552  1.00  0.00    -0.270 OA
ATOM      3  N   UNL     1       7.120 -13.986 -41.495  1.00  0.00    -0.319 N 
ATOM      4  H   UNL     1       6.502 -13.547 -42.169  1.00  0.00     0.170 HD
ENDROOT
BRANCH   1   5
ATOM      5  C   UNL     1       7.428 -11.739 -40.711  1.00  0.00     0.068 C 
ATOM      6  C   UNL     1       7.573 -11.092 -41.880  1.00  0.00    -0.006 C 
BRANCH   6   7
ATOM      7  C   UNL     1       7.373  -9.633 -42.198  1.00  0.00     0.111 C 
BRANCH   7   8
ATOM      8  N   UNL     1       7.178  -9.163 -43.561  1.00  0.00    -0.306 NA
ATOM      9  C   UNL     1       6.592  -7.837 -43.674  1.00  0.00     0.105 C 
ATOM     10  C   UNL     1       6.593 -10.132 -44.474  1.00  0.00     0.105 C 
ENDBRANCH   7   8
ENDBRANCH   6   7
ENDBRANCH   1   5
BRANCH   3  11
ATOM     11  C   UNL     1       7.213 -15.387 -41.638  1.00  0.00     0.085 A 
ATOM     12  C   UNL     1       6.256 -16.276 -41.153  1.00  0.00     0.044 A 
ATOM     13  C   UNL     1       8.347 -15.891 -42.294  1.00  0.00     0.145 A 
ATOM     14  C   UNL     1       6.401 -17.676 -41.330  1.00  0.00     0.045 A 
ATOM     15  C   UNL     1       8.499 -17.272 -42.439  1.00  0.00     0.077 A 
ATOM     16  C   UNL     1       5.476 -18.650 -40.899  1.00  0.00     0.141 A 
ATOM     17  C   UNL     1       7.544 -18.167 -41.973  1.00  0.00     0.080 A 
ATOM     18  N   UNL     1       5.700 -19.964 -41.079  1.00  0.00    -0.219 NA
ATOM     19  N   UNL     1       7.764 -19.471 -42.160  1.00  0.00    -0.236 NA
ATOM     20  C   UNL     1       6.831 -20.309 -41.698  1.00  0.00     0.224 A 
BRANCH  13  21
ATOM     21  O   UNL     1       9.235 -14.942 -42.740  1.00  0.00    -0.486 OA
BRANCH  21  22
ATOM     22  C   UNL     1       9.713 -15.023 -44.090  1.00  0.00     0.201 C 
ATOM     23  C   UNL     1       8.607 -14.520 -44.993  1.00  0.00     0.076 C 
ATOM     24  C   UNL     1      10.807 -13.995 -44.352  1.00  0.00     0.205 C 
ATOM     25  C   UNL     1       8.764 -13.019 -44.888  1.00  0.00     0.164 C 
ATOM     26  O   UNL     1      10.163 -12.762 -44.726  1.00  0.00    -0.377 OA
ENDBRANCH  21  22
ENDBRANCH  13  21
BRANCH  16  27
ATOM     27  N   UNL     1       4.281 -18.228 -40.254  1.00  0.00    -0.340 N 
ATOM     28  H   UNL     1       4.393 -17.273 -39.929  1.00  0.00     0.168 HD
BRANCH  27  29
ATOM     29  C   UNL     1       2.939 -18.520 -40.586  1.00  0.00     0.041 A 
ATOM     30  C   UNL     1       2.401 -19.758 -40.194  1.00  0.00     0.029 A 
ATOM     31  C   UNL     1       2.152 -17.680 -41.386  1.00  0.00     0.049 A 
ATOM     32  C   UNL     1       1.096 -20.119 -40.537  1.00  0.00     0.043 A 
ATOM     33  C   UNL     1       0.847 -18.040 -41.732  1.00  0.00     0.078 A 
ATOM     34  C   UNL     1       0.324 -19.255 -41.301  1.00  0.00     0.141 A 
ATOM     35  Cl  UNL     1      -0.099 -16.975 -42.700  1.00  0.00    -0.081 Cl
ATOM     36  F   UNL     1      -0.926 -19.620 -41.623  1.00  0.00    -0.205 F 
ENDBRANCH  27  29
ENDBRANCH  16  27
ENDBRANCH   3  11
TORSDOF 8
ENDMDL
MODEL 15
REMARK minimizedAffinity -7.48425674
REMARK minimizedRMSD -1
REMARK SMILES CN(C)C/C=C/C(=O)Nc1cc2c(Nc3ccc(F)c(Cl)c3)ncnc2cc1O[C@H]1CCOC1
REMARK SMILES IDX 7 1 8 2 9 3 6 5 5 6 4 7 2 8 1 9 3 10 10 11 11 12 28 13 12 14
REMARK SMILES IDX 27 15 13 16 26 17 23 18 25 19 24 20 29 21 30 22 31 23 34 24
REMARK SMILES IDX 32 25 33 26 14 27 15 29 16 30 22 31 17 32 20 33 18 34 21 35
REMARK SMILES IDX 19 36
REMARK H PARENT 9 4 14 28
ROOT
ATOM      1  C   UNL     1       4.965 -15.862 -44.935  1.00  0.00     0.248 C 
ATOM      2  O   UNL     1       4.727 -15.892 -43.733  1.00  0.00    -0.270 OA
ATOM      3  N   UNL     1       5.641 -16.803 -45.670  1.00  0.00    -0.319 N 
ATOM      4  H   UNL     1       5.633 -16.716 -46.681  1.00  0.00     0.170 HD
ENDROOT
BRANCH   1   5
ATOM      5  C   UNL     1       4.410 -14.745 -45.748  1.00  0.00     0.068 C 
ATOM      6  C   UNL     1       3.296 -14.069 -45.420  1.00  0.00    -0.006 C 
BRANCH   6   7
ATOM      7  C   UNL     1       2.602 -12.952 -46.155  1.00  0.00     0.111 C 
BRANCH   7   8
ATOM      8  N   UNL     1       1.314 -13.143 -46.804  1.00  0.00    -0.306 NA
ATOM      9  C   UNL     1       0.265 -12.236 -46.362  1.00  0.00     0.105 C 
ATOM     10  C   UNL     1       0.873 -14.525 -46.914  1.00  0.00     0.105 C 
ENDBRANCH   7   8
ENDBRANCH   6   7
ENDBRANCH   1   5
BRANCH   3  11
ATOM     11  C   UNL     1       6.314 -17.953 -45.204  1.00  0.00     0.085 A 
ATOM     12  C   UNL     1       5.681 -18.995 -44.529  1.00  0.00     0.044 A 
ATOM     13  C   UNL     1       7.698 -18.023 -45.431  1.00  0.00     0.145 A 
ATOM     14  C   UNL     1       6.410 -20.128 -44.087  1.00  0.00     0.045 A 
ATOM     15  C   UNL     1       8.414 -19.128 -44.967  1.00  0.00     0.077 A 
ATOM     16  C   UNL     1       5.855 -21.242 -43.421  1.00  0.00     0.141 A 
ATOM     17  C   UNL     1       7.792 -20.180 -44.305  1.00  0.00     0.080 A 
ATOM     18  N   UNL     1       6.618 -22.269 -43.006  1.00  0.00    -0.219 NA
ATOM     19  N   UNL     1       8.550 -21.202 -43.903  1.00  0.00    -0.236 NA
ATOM     20  C   UNL     1       7.925 -22.198 -43.266  1.00  0.00     0.224 A 
BRANCH  13  21
ATOM     21  O   UNL     1       8.235 -16.953 -46.105  1.00  0.00    -0.486 OA
BRANCH  21  22
ATOM     22  C   UNL     1       9.289 -16.203 -45.485  1.00  0.00     0.201 C 
ATOM     23  C   UNL     1       9.339 -14.849 -46.161  1.00  0.00     0.076 C 
ATOM     24  C   UNL     1       8.923 -15.815 -44.057  1.00  0.00     0.205 C 
ATOM     25  C   UNL     1       8.220 -14.102 -45.467  1.00  0.00     0.164 C 
ATOM     26  O   UNL     1       8.177 -14.584 -44.120  1.00  0.00    -0.377 OA
ENDBRANCH  21  22
ENDBRANCH  13  21
BRANCH  16  27
ATOM     27  N   UNL     1       4.455 -21.272 -43.178  1.00  0.00    -0.340 N 
ATOM     28  H   UNL     1       4.104 -22.210 -43.345  1.00  0.00     0.168 HD
BRANCH  27  29
ATOM     29  C   UNL     1       3.707 -20.597 -42.187  1.00  0.00     0.041 A 
ATOM     30  C   UNL     1       4.387 -19.772 -41.275  1.00  0.00     0.029 A 
ATOM     31  C   UNL     1       2.333 -20.798 -42.000  1.00  0.00     0.049 A 
ATOM     32  C   UNL     1       3.706 -19.120 -40.244  1.00  0.00     0.043 A 
ATOM     33  C   UNL     1       1.649 -20.148 -40.969  1.00  0.00     0.078 A 
ATOM     34  C   UNL     1       2.338 -19.308 -40.100  1.00  0.00     0.141 A 
ATOM     35  Cl  UNL     1      -0.044 -20.403 -40.780  1.00  0.00    -0.081 Cl
ATOM     36  F   UNL     1       1.701 -18.676 -39.103  1.00  0.00    -0.205 F 
ENDBRANCH  27  29
ENDBRANCH  16  27
ENDBRANCH   3  11
TORSDOF 8
ENDMDL
MODEL 16
REMARK minimizedAffinity -7.477139
REMARK minimizedRMSD -1
REMARK SMILES CN(C)C/C=C/C(=O)Nc1cc2c(Nc3ccc(F)c(Cl)c3)ncnc2cc1O[C@H]1CCOC1
REMARK SMILES IDX 7 1 8 2 9 3 6 5 5 6 4 7 2 8 1 9 3 10 10 11 11 12 28 13 12 14
REMARK SMILES IDX 27 15 13 16 26 17 23 18 25 19 24 20 29 21 30 22 31 23 34 24
REMARK SMILES IDX 32 25 33 26 14 27 15 29 16 30 22 31 17 32 20 33 18 34 21 35
REMARK SMILES IDX 19 36
REMARK H PARENT 9 4 14 28
ROOT
ATOM      1  C   UNL     1       0.655 -10.306 -43.858  1.00  0.00     0.248 C 
ATOM      2  O   UNL     1       0.912 -10.369 -42.661  1.00  0.00    -0.270 OA
ATOM      3  N   UNL     1       1.104 -11.143 -44.848  1.00  0.00    -0.319 N 
ATOM      4  H   UNL     1       0.689 -11.057 -45.770  1.00  0.00     0.170 HD
ENDROOT
BRANCH   1   5
ATOM      5  C   UNL     1      -0.313  -9.278 -44.329  1.00  0.00     0.068 C 
ATOM      6  C   UNL     1      -1.522  -9.085 -43.774  1.00  0.00    -0.006 C 
BRANCH   6   7
ATOM      7  C   UNL     1      -2.610  -8.118 -44.162  1.00  0.00     0.111 C 
BRANCH   7   8
ATOM      8  N   UNL     1      -3.659  -8.479 -45.104  1.00  0.00    -0.306 NA
ATOM      9  C   UNL     1      -3.209  -8.682 -46.473  1.00  0.00     0.105 C 
ATOM     10  C   UNL     1      -4.879  -7.693 -45.008  1.00  0.00     0.105 C 
ENDBRANCH   7   8
ENDBRANCH   6   7
ENDBRANCH   1   5
BRANCH   3  11
ATOM     11  C   UNL     1       2.047 -12.187 -44.744  1.00  0.00     0.085 A 
ATOM     12  C   UNL     1       1.823 -13.358 -44.021  1.00  0.00     0.044 A 
ATOM     13  C   UNL     1       3.277 -12.010 -45.399  1.00  0.00     0.145 A 
ATOM     14  C   UNL     1       2.809 -14.376 -43.955  1.00  0.00     0.045 A 
ATOM     15  C   UNL     1       4.254 -13.003 -45.305  1.00  0.00     0.077 A 
ATOM     16  C   UNL     1       2.665 -15.603 -43.274  1.00  0.00     0.141 A 
ATOM     17  C   UNL     1       4.036 -14.181 -44.600  1.00  0.00     0.080 A 
ATOM     18  N   UNL     1       3.658 -16.509 -43.233  1.00  0.00    -0.219 NA
ATOM     19  N   UNL     1       5.021 -15.082 -44.569  1.00  0.00    -0.236 NA
ATOM     20  C   UNL     1       4.786 -16.204 -43.879  1.00  0.00     0.224 A 
BRANCH  13  21
ATOM     21  O   UNL     1       3.407 -10.828 -46.088  1.00  0.00    -0.486 OA
BRANCH  21  22
ATOM     22  C   UNL     1       4.063  -9.724 -45.448  1.00  0.00     0.201 C 
ATOM     23  C   UNL     1       5.379  -9.504 -46.163  1.00  0.00     0.076 C 
ATOM     24  C   UNL     1       3.340  -8.413 -45.732  1.00  0.00     0.205 C 
ATOM     25  C   UNL     1       4.954  -8.714 -47.382  1.00  0.00     0.164 C 
ATOM     26  O   UNL     1       3.846  -7.901 -46.981  1.00  0.00    -0.377 OA
ENDBRANCH  21  22
ENDBRANCH  13  21
BRANCH  16  27
ATOM     27  N   UNL     1       1.439 -15.883 -42.610  1.00  0.00    -0.340 N 
ATOM     28  H   UNL     1       0.720 -15.253 -42.951  1.00  0.00     0.168 HD
BRANCH  27  29
ATOM     29  C   UNL     1       0.906 -17.129 -42.212  1.00  0.00     0.041 A 
ATOM     30  C   UNL     1      -0.405 -17.457 -42.602  1.00  0.00     0.029 A 
ATOM     31  C   UNL     1       1.580 -18.008 -41.353  1.00  0.00     0.049 A 
ATOM     32  C   UNL     1      -1.001 -18.654 -42.196  1.00  0.00     0.043 A 
ATOM     33  C   UNL     1       0.985 -19.205 -40.945  1.00  0.00     0.078 A 
ATOM     34  C   UNL     1      -0.300 -19.524 -41.373  1.00  0.00     0.141 A 
ATOM     35  Cl  UNL     1       1.850 -20.271 -39.905  1.00  0.00    -0.081 Cl
ATOM     36  F   UNL     1      -0.889 -20.667 -40.992  1.00  0.00    -0.205 F 
ENDBRANCH  27  29
ENDBRANCH  16  27
ENDBRANCH   3  11
TORSDOF 8
ENDMDL
MODEL 17
REMARK minimizedAffinity -7.44178581
REMARK minimizedRMSD -1
REMARK SMILES CN(C)C/C=C/C(=O)Nc1cc2c(Nc3ccc(F)c(Cl)c3)ncnc2cc1O[C@H]1CCOC1
REMARK SMILES IDX 7 1 8 2 9 3 6 5 5 6 4 7 2 8 1 9 3 10 10 11 11 12 28 13 12 14
REMARK SMILES IDX 27 15 13 16 26 17 23 18 25 19 24 20 29 21 30 22 31 23 34 24
REMARK SMILES IDX 32 25 33 26 14 27 15 29 16 30 22 31 17 32 20 33 18 34 21 35
REMARK SMILES IDX 19 36
REMARK H PARENT 9 4 14 28
ROOT
ATOM      1  C   UNL     1       4.765 -16.793 -42.701  1.00  0.00     0.248 C 
ATOM      2  O   UNL     1       5.369 -17.304 -43.636  1.00  0.00    -0.270 OA
ATOM      3  N   UNL     1       4.470 -15.464 -42.531  1.00  0.00    -0.319 N 
ATOM      4  H   UNL     1       3.835 -15.207 -41.783  1.00  0.00     0.170 HD
ENDROOT
BRANCH   1   5
ATOM      5  C   UNL     1       4.194 -17.677 -41.648  1.00  0.00     0.068 C 
ATOM      6  C   UNL     1       2.876 -17.799 -41.414  1.00  0.00    -0.006 C 
BRANCH   6   7
ATOM      7  C   UNL     1       2.161 -18.619 -40.371  1.00  0.00     0.111 C 
BRANCH   7   8
ATOM      8  N   UNL     1       1.421 -19.823 -40.717  1.00  0.00    -0.306 NA
ATOM      9  C   UNL     1       2.127 -20.746 -41.592  1.00  0.00     0.105 C 
ATOM     10  C   UNL     1       0.034 -19.612 -41.099  1.00  0.00     0.105 C 
ENDBRANCH   7   8
ENDBRANCH   6   7
ENDBRANCH   1   5
BRANCH   3  11
ATOM     11  C   UNL     1       4.887 -14.372 -43.322  1.00  0.00     0.085 A 
ATOM     12  C   UNL     1       6.150 -13.791 -43.228  1.00  0.00     0.044 A 
ATOM     13  C   UNL     1       3.958 -13.848 -44.235  1.00  0.00     0.145 A 
ATOM     14  C   UNL     1       6.515 -12.695 -44.052  1.00  0.00     0.045 A 
ATOM     15  C   UNL     1       4.312 -12.751 -45.022  1.00  0.00     0.077 A 
ATOM     16  C   UNL     1       7.774 -12.059 -44.049  1.00  0.00     0.141 A 
ATOM     17  C   UNL     1       5.574 -12.173 -44.948  1.00  0.00     0.080 A 
ATOM     18  N   UNL     1       8.035 -11.005 -44.842  1.00  0.00    -0.219 NA
ATOM     19  N   UNL     1       5.833 -11.132 -45.743  1.00  0.00    -0.236 NA
ATOM     20  C   UNL     1       7.053 -10.593 -45.647  1.00  0.00     0.224 A 
BRANCH  13  21
ATOM     21  O   UNL     1       2.740 -14.485 -44.260  1.00  0.00    -0.486 OA
BRANCH  21  22
ATOM     22  C   UNL     1       1.584 -13.749 -44.682  1.00  0.00     0.201 C 
ATOM     23  C   UNL     1       0.911 -14.550 -45.775  1.00  0.00     0.076 C 
ATOM     24  C   UNL     1       0.507 -13.746 -43.603  1.00  0.00     0.205 C 
ATOM     25  C   UNL     1       0.131 -15.579 -44.987  1.00  0.00     0.164 C 
ATOM     26  O   UNL     1      -0.278 -14.943 -43.771  1.00  0.00    -0.377 OA
ENDBRANCH  21  22
ENDBRANCH  13  21
BRANCH  16  27
ATOM     27  N   UNL     1       8.789 -12.545 -43.179  1.00  0.00    -0.340 N 
ATOM     28  H   UNL     1       8.372 -12.820 -42.296  1.00  0.00     0.168 HD
BRANCH  27  29
ATOM     29  C   UNL     1       9.932 -13.316 -43.487  1.00  0.00     0.041 A 
ATOM     30  C   UNL     1      10.850 -13.601 -42.461  1.00  0.00     0.029 A 
ATOM     31  C   UNL     1      10.253 -13.716 -44.791  1.00  0.00     0.049 A 
ATOM     32  C   UNL     1      12.022 -14.317 -42.718  1.00  0.00     0.043 A 
ATOM     33  C   UNL     1      11.425 -14.432 -45.052  1.00  0.00     0.078 A 
ATOM     34  C   UNL     1      12.300 -14.733 -44.013  1.00  0.00     0.141 A 
ATOM     35  Cl  UNL     1      11.778 -14.925 -46.664  1.00  0.00    -0.081 Cl
ATOM     36  F   UNL     1      13.431 -15.416 -44.242  1.00  0.00    -0.205 F 
ENDBRANCH  27  29
ENDBRANCH  16  27
ENDBRANCH   3  11
TORSDOF 8
ENDMDL
MODEL 18
REMARK minimizedAffinity -7.42820597
REMARK minimizedRMSD -1
REMARK SMILES CN(C)C/C=C/C(=O)Nc1cc2c(Nc3ccc(F)c(Cl)c3)ncnc2cc1O[C@H]1CCOC1
REMARK SMILES IDX 7 1 8 2 9 3 6 5 5 6 4 7 2 8 1 9 3 10 10 11 11 12 28 13 12 14
REMARK SMILES IDX 27 15 13 16 26 17 23 18 25 19 24 20 29 21 30 22 31 23 34 24
REMARK SMILES IDX 32 25 33 26 14 27 15 29 16 30 22 31 17 32 20 33 18 34 21 35
REMARK SMILES IDX 19 36
REMARK H PARENT 9 4 14 28
ROOT
ATOM      1  C   UNL     1       1.842  -9.668 -44.301  1.00  0.00     0.248 C 
ATOM      2  O   UNL     1       1.496 -10.213 -43.260  1.00  0.00    -0.270 OA
ATOM      3  N   UNL     1       1.677 -10.139 -45.579  1.00  0.00    -0.319 N 
ATOM      4  H   UNL     1       1.879  -9.510 -46.350  1.00  0.00     0.170 HD
ENDROOT
BRANCH   1   5
ATOM      5  C   UNL     1       2.436  -8.304 -44.232  1.00  0.00     0.068 C 
ATOM      6  C   UNL     1       3.692  -8.060 -43.822  1.00  0.00    -0.006 C 
BRANCH   6   7
ATOM      7  C   UNL     1       4.411  -6.745 -43.667  1.00  0.00     0.111 C 
BRANCH   7   8
ATOM      8  N   UNL     1       5.793  -6.571 -44.089  1.00  0.00    -0.306 NA
ATOM      9  C   UNL     1       5.964  -5.861 -45.348  1.00  0.00     0.105 C 
ATOM     10  C   UNL     1       6.631  -7.754 -43.975  1.00  0.00     0.105 C 
ENDBRANCH   7   8
ENDBRANCH   6   7
ENDBRANCH   1   5
BRANCH   3  11
ATOM     11  C   UNL     1       1.183 -11.396 -45.987  1.00  0.00     0.085 A 
ATOM     12  C   UNL     1       1.951 -12.558 -45.999  1.00  0.00     0.044 A 
ATOM     13  C   UNL     1      -0.154 -11.453 -46.413  1.00  0.00     0.145 A 
ATOM     14  C   UNL     1       1.399 -13.796 -46.417  1.00  0.00     0.045 A 
ATOM     15  C   UNL     1      -0.684 -12.669 -46.850  1.00  0.00     0.077 A 
ATOM     16  C   UNL     1       2.087 -15.027 -46.439  1.00  0.00     0.141 A 
ATOM     17  C   UNL     1       0.069 -13.837 -46.854  1.00  0.00     0.080 A 
ATOM     18  N   UNL     1       1.501 -16.156 -46.877  1.00  0.00    -0.219 NA
ATOM     19  N   UNL     1      -0.518 -14.958 -47.280  1.00  0.00    -0.236 NA
ATOM     20  C   UNL     1       0.231 -16.066 -47.276  1.00  0.00     0.224 A 
BRANCH  13  21
ATOM     21  O   UNL     1      -0.835 -10.260 -46.364  1.00  0.00    -0.486 OA
BRANCH  21  22
ATOM     22  C   UNL     1      -2.158 -10.242 -45.811  1.00  0.00     0.201 C 
ATOM     23  C   UNL     1      -2.019 -10.122 -44.308  1.00  0.00     0.076 C 
ATOM     24  C   UNL     1      -2.882  -8.945 -46.152  1.00  0.00     0.205 C 
ATOM     25  C   UNL     1      -1.780  -8.639 -44.125  1.00  0.00     0.164 C 
ATOM     26  O   UNL     1      -2.524  -7.973 -45.151  1.00  0.00    -0.377 OA
ENDBRANCH  21  22
ENDBRANCH  13  21
BRANCH  16  27
ATOM     27  N   UNL     1       3.436 -15.071 -45.993  1.00  0.00    -0.340 N 
ATOM     28  H   UNL     1       3.811 -14.128 -45.962  1.00  0.00     0.168 HD
BRANCH  27  29
ATOM     29  C   UNL     1       4.025 -15.906 -45.017  1.00  0.00     0.041 A 
ATOM     30  C   UNL     1       3.684 -15.712 -43.667  1.00  0.00     0.029 A 
ATOM     31  C   UNL     1       5.020 -16.846 -45.319  1.00  0.00     0.049 A 
ATOM     32  C   UNL     1       4.273 -16.475 -42.656  1.00  0.00     0.043 A 
ATOM     33  C   UNL     1       5.611 -17.610 -44.309  1.00  0.00     0.078 A 
ATOM     34  C   UNL     1       5.231 -17.424 -42.984  1.00  0.00     0.141 A 
ATOM     35  Cl  UNL     1       6.816 -18.771 -44.718  1.00  0.00    -0.081 Cl
ATOM     36  F   UNL     1       5.787 -18.146 -42.000  1.00  0.00    -0.205 F 
ENDBRANCH  27  29
ENDBRANCH  16  27
ENDBRANCH   3  11
TORSDOF 8
ENDMDL
MODEL 19
REMARK minimizedAffinity -7.3129468
REMARK minimizedRMSD -1
REMARK SMILES CN(C)C/C=C/C(=O)Nc1cc2c(Nc3ccc(F)c(Cl)c3)ncnc2cc1O[C@H]1CCOC1
REMARK SMILES IDX 7 1 8 2 9 3 6 5 5 6 4 7 2 8 1 9 3 10 10 11 11 12 28 13 12 14
REMARK SMILES IDX 27 15 13 16 26 17 23 18 25 19 24 20 29 21 30 22 31 23 34 24
REMARK SMILES IDX 32 25 33 26 14 27 15 29 16 30 22 31 17 32 20 33 18 34 21 35
REMARK SMILES IDX 19 36
REMARK H PARENT 9 4 14 28
ROOT
ATOM      1  C   UNL     1       3.953 -17.725 -42.005  1.00  0.00     0.248 C 
ATOM      2  O   UNL     1       4.958 -18.290 -42.419  1.00  0.00    -0.270 OA
ATOM      3  N   UNL     1       3.525 -16.459 -42.316  1.00  0.00    -0.319 N 
ATOM      4  H   UNL     1       2.597 -16.181 -42.014  1.00  0.00     0.170 HD
ENDROOT
BRANCH   1   5
ATOM      5  C   UNL     1       3.013 -18.483 -41.133  1.00  0.00     0.068 C 
ATOM      6  C   UNL     1       1.695 -18.585 -41.372  1.00  0.00    -0.006 C 
BRANCH   6   7
ATOM      7  C   UNL     1       0.627 -19.281 -40.568  1.00  0.00     0.111 C 
BRANCH   7   8
ATOM      8  N   UNL     1      -0.572 -19.822 -41.191  1.00  0.00    -0.306 NA
ATOM      9  C   UNL     1      -0.424 -21.159 -41.744  1.00  0.00     0.105 C 
ATOM     10  C   UNL     1      -1.281 -18.908 -42.072  1.00  0.00     0.105 C 
ENDBRANCH   7   8
ENDBRANCH   6   7
ENDBRANCH   1   5
BRANCH   3  11
ATOM     11  C   UNL     1       4.191 -15.479 -43.081  1.00  0.00     0.085 A 
ATOM     12  C   UNL     1       5.438 -14.954 -42.744  1.00  0.00     0.044 A 
ATOM     13  C   UNL     1       3.537 -15.008 -44.231  1.00  0.00     0.145 A 
ATOM     14  C   UNL     1       6.061 -13.971 -43.555  1.00  0.00     0.045 A 
ATOM     15  C   UNL     1       4.143 -14.019 -45.009  1.00  0.00     0.077 A 
ATOM     16  C   UNL     1       7.329 -13.402 -43.312  1.00  0.00     0.141 A 
ATOM     17  C   UNL     1       5.392 -13.500 -44.691  1.00  0.00     0.080 A 
ATOM     18  N   UNL     1       7.841 -12.451 -44.113  1.00  0.00    -0.219 NA
ATOM     19  N   UNL     1       5.902 -12.562 -45.493  1.00  0.00    -0.236 NA
ATOM     20  C   UNL     1       7.104 -12.077 -45.161  1.00  0.00     0.224 A 
BRANCH  13  21
ATOM     21  O   UNL     1       2.315 -15.583 -44.486  1.00  0.00    -0.486 OA
BRANCH  21  22
ATOM     22  C   UNL     1       1.251 -14.755 -44.975  1.00  0.00     0.201 C 
ATOM     23  C   UNL     1       0.353 -15.629 -45.825  1.00  0.00     0.076 C 
ATOM     24  C   UNL     1       0.303 -14.352 -43.851  1.00  0.00     0.205 C 
ATOM     25  C   UNL     1      -0.493 -16.329 -44.785  1.00  0.00     0.164 C 
ATOM     26  O   UNL     1      -0.672 -15.404 -43.708  1.00  0.00    -0.377 OA
ENDBRANCH  21  22
ENDBRANCH  13  21
BRANCH  16  27
ATOM     27  N   UNL     1       8.078 -13.843 -42.187  1.00  0.00    -0.340 N 
ATOM     28  H   UNL     1       7.461 -13.935 -41.386  1.00  0.00     0.168 HD
BRANCH  27  29
ATOM     29  C   UNL     1       9.151 -14.761 -42.136  1.00  0.00     0.041 A 
ATOM     30  C   UNL     1       8.884 -16.123 -42.356  1.00  0.00     0.029 A 
ATOM     31  C   UNL     1      10.451 -14.393 -41.766  1.00  0.00     0.049 A 
ATOM     32  C   UNL     1       9.898 -17.081 -42.268  1.00  0.00     0.043 A 
ATOM     33  C   UNL     1      11.467 -15.349 -41.676  1.00  0.00     0.078 A 
ATOM     34  C   UNL     1      11.186 -16.687 -41.933  1.00  0.00     0.141 A 
ATOM     35  Cl  UNL     1      13.058 -14.858 -41.237  1.00  0.00    -0.081 Cl
ATOM     36  F   UNL     1      12.145 -17.621 -41.851  1.00  0.00    -0.205 F 
ENDBRANCH  27  29
ENDBRANCH  16  27
ENDBRANCH   3  11
TORSDOF 8
ENDMDL
MODEL 20
REMARK minimizedAffinity -7.26678991
REMARK minimizedRMSD -1
REMARK SMILES CN(C)C/C=C/C(=O)Nc1cc2c(Nc3ccc(F)c(Cl)c3)ncnc2cc1O[C@H]1CCOC1
REMARK SMILES IDX 7 1 8 2 9 3 6 5 5 6 4 7 2 8 1 9 3 10 10 11 11 12 28 13 12 14
REMARK SMILES IDX 27 15 13 16 26 17 23 18 25 19 24 20 29 21 30 22 31 23 34 24
REMARK SMILES IDX 32 25 33 26 14 27 15 29 16 30 22 31 17 32 20 33 18 34 21 35
REMARK SMILES IDX 19 36
REMARK H PARENT 9 4 14 28
ROOT
ATOM      1  C   UNL     1       7.761 -14.523 -42.681  1.00  0.00     0.248 C 
ATOM      2  O   UNL     1       8.388 -14.920 -41.706  1.00  0.00    -0.270 OA
ATOM      3  N   UNL     1       7.100 -15.287 -43.609  1.00  0.00    -0.319 N 
ATOM      4  H   UNL     1       6.501 -14.814 -44.278  1.00  0.00     0.170 HD
ENDROOT
BRANCH   1   5
ATOM      5  C   UNL     1       7.599 -13.057 -42.881  1.00  0.00     0.068 C 
ATOM      6  C   UNL     1       7.671 -12.457 -44.081  1.00  0.00    -0.006 C 
BRANCH   6   7
ATOM      7  C   UNL     1       7.564 -10.995 -44.429  1.00  0.00     0.111 C 
BRANCH   7   8
ATOM      8  N   UNL     1       6.598 -10.121 -43.781  1.00  0.00    -0.306 NA
ATOM      9  C   UNL     1       5.693  -9.430 -44.687  1.00  0.00     0.105 C 
ATOM     10  C   UNL     1       7.138  -9.262 -42.739  1.00  0.00     0.105 C 
ENDBRANCH   7   8
ENDBRANCH   6   7
ENDBRANCH   1   5
BRANCH   3  11
ATOM     11  C   UNL     1       7.081 -16.694 -43.725  1.00  0.00     0.085 A 
ATOM     12  C   UNL     1       6.363 -17.528 -42.870  1.00  0.00     0.044 A 
ATOM     13  C   UNL     1       7.847 -17.263 -44.756  1.00  0.00     0.145 A 
ATOM     14  C   UNL     1       6.380 -18.936 -43.038  1.00  0.00     0.045 A 
ATOM     15  C   UNL     1       7.882 -18.651 -44.898  1.00  0.00     0.077 A 
ATOM     16  C   UNL     1       5.668 -19.858 -42.243  1.00  0.00     0.141 A 
ATOM     17  C   UNL     1       7.159 -19.492 -44.060  1.00  0.00     0.080 A 
ATOM     18  N   UNL     1       5.757 -21.184 -42.447  1.00  0.00    -0.219 NA
ATOM     19  N   UNL     1       7.243 -20.808 -44.271  1.00  0.00    -0.236 NA
ATOM     20  C   UNL     1       6.540 -21.593 -43.448  1.00  0.00     0.224 A 
BRANCH  13  21
ATOM     21  O   UNL     1       8.518 -16.364 -45.550  1.00  0.00    -0.486 OA
BRANCH  21  22
ATOM     22  C   UNL     1       9.935 -16.513 -45.716  1.00  0.00     0.201 C 
ATOM     23  C   UNL     1      10.426 -15.316 -46.502  1.00  0.00     0.076 C 
ATOM     24  C   UNL     1      10.669 -16.328 -44.393  1.00  0.00     0.205 C 
ATOM     25  C   UNL     1      10.531 -14.250 -45.433  1.00  0.00     0.164 C 
ATOM     26  O   UNL     1      10.906 -14.917 -44.223  1.00  0.00    -0.377 OA
ENDBRANCH  21  22
ENDBRANCH  13  21
BRANCH  16  27
ATOM     27  N   UNL     1       4.839 -19.369 -41.196  1.00  0.00    -0.340 N 
ATOM     28  H   UNL     1       5.297 -18.585 -40.742  1.00  0.00     0.168 HD
BRANCH  27  29
ATOM     29  C   UNL     1       3.431 -19.255 -41.153  1.00  0.00     0.041 A 
ATOM     30  C   UNL     1       2.672 -20.398 -40.848  1.00  0.00     0.029 A 
ATOM     31  C   UNL     1       2.750 -18.084 -41.510  1.00  0.00     0.049 A 
ATOM     32  C   UNL     1       1.275 -20.356 -40.840  1.00  0.00     0.043 A 
ATOM     33  C   UNL     1       1.353 -18.040 -41.504  1.00  0.00     0.078 A 
ATOM     34  C   UNL     1       0.623 -19.174 -41.164  1.00  0.00     0.141 A 
ATOM     35  Cl  UNL     1       0.548 -16.578 -41.930  1.00  0.00    -0.081 Cl
ATOM     36  F   UNL     1      -0.718 -19.153 -41.153  1.00  0.00    -0.205 F 
ENDBRANCH  27  29
ENDBRANCH  16  27
ENDBRANCH   3  11
TORSDOF 8
ENDMDL
