MODEL 1
REMARK minimizedAffinity -8.39658833
REMARK minimizedRMSD -1
REMARK SMILES CN(C)CCOc1ccc(-c2nc(-c3ccncc3)c(-c3ccc4c(c3)CC/C4=N\O)[nH]2)cc1
REMARK SMILES IDX 7 1 8 2 9 3 10 4 33 5 34 6 6 7 5 8 4 9 2 10 1 11 3 12 11 13
REMARK SMILES IDX 12 14 32 15 13 16 20 17 14 19 15 20 19 21 16 22 18 23 17 24
REMARK SMILES IDX 21 25 22 26 26 27 23 28 25 29 24 30 27 31 29 32 28 33 30 34
REMARK SMILES IDX 31 35
REMARK H PARENT 32 18 31 36
ROOT
ATOM      1  C   UNL     1      -0.744  -8.260 -44.649  1.00  0.00     0.119 A 
ATOM      2  C   UNL     1       0.574  -8.586 -44.958  1.00  0.00     0.047 A 
ATOM      3  C   UNL     1       1.025  -9.903 -44.803  1.00  0.00     0.016 A 
ATOM      4  C   UNL     1       0.174 -10.918 -44.339  1.00  0.00     0.017 A 
ATOM      5  C   UNL     1      -1.150 -10.578 -44.034  1.00  0.00     0.016 A 
ATOM      6  C   UNL     1      -1.599  -9.261 -44.188  1.00  0.00     0.047 A 
ENDROOT
BRANCH   1   7
ATOM      7  O   UNL     1      -1.314  -7.022 -44.751  1.00  0.00    -0.492 OA
BRANCH   7   8
ATOM      8  C   UNL     1      -2.171  -6.610 -43.680  1.00  0.00     0.245 C 
BRANCH   8   9
ATOM      9  C   UNL     1      -3.368  -5.828 -44.255  1.00  0.00     0.125 C 
BRANCH   9  10
ATOM     10  N   UNL     1      -4.648  -6.573 -44.270  1.00  0.00    -0.306 NA
ATOM     11  C   UNL     1      -4.815  -7.350 -45.501  1.00  0.00     0.105 C 
ATOM     12  C   UNL     1      -4.719  -7.463 -43.109  1.00  0.00     0.105 C 
ENDBRANCH   9  10
ENDBRANCH   8   9
ENDBRANCH   7   8
ENDBRANCH   1   7
BRANCH   4  13
ATOM     13  C   UNL     1       0.701 -12.280 -44.194  1.00  0.00     0.138 A 
ATOM     14  N   UNL     1       1.881 -12.700 -44.610  1.00  0.00    -0.228 NA
ATOM     15  N   UNL     1       0.030 -13.323 -43.603  1.00  0.00    -0.337 N 
ATOM     16  C   UNL     1       1.973 -14.033 -44.270  1.00  0.00     0.097 A 
ATOM     17  C   UNL     1       0.810 -14.458 -43.648  1.00  0.00     0.074 A 
ATOM     18  H   UNL     1      -0.905 -13.281 -43.227  1.00  0.00     0.168 HD
BRANCH  16  19
ATOM     19  C   UNL     1       3.158 -14.815 -44.580  1.00  0.00     0.005 A 
ATOM     20  C   UNL     1       3.332 -15.448 -45.812  1.00  0.00     0.030 A 
ATOM     21  C   UNL     1       4.145 -14.968 -43.604  1.00  0.00     0.030 A 
ATOM     22  C   UNL     1       4.492 -16.177 -46.021  1.00  0.00     0.111 A 
ATOM     23  C   UNL     1       5.268 -15.719 -43.908  1.00  0.00     0.111 A 
ATOM     24  N   UNL     1       5.467 -16.322 -45.099  1.00  0.00    -0.265 NA
ENDBRANCH  16  19
BRANCH  17  25
ATOM     25  C   UNL     1       0.329 -15.746 -43.165  1.00  0.00     0.001 A 
ATOM     26  C   UNL     1      -0.941 -16.218 -43.557  1.00  0.00     0.011 A 
ATOM     27  C   UNL     1       1.128 -16.517 -42.301  1.00  0.00     0.014 A 
ATOM     28  C   UNL     1      -1.421 -17.448 -43.102  1.00  0.00     0.011 A 
ATOM     29  C   UNL     1       0.645 -17.738 -41.852  1.00  0.00    -0.038 A 
ATOM     30  C   UNL     1      -0.608 -18.180 -42.256  1.00  0.00     0.003 A 
ATOM     31  C   UNL     1       1.332 -18.710 -40.945  1.00  0.00     0.043 C 
ATOM     32  C   UNL     1      -0.855 -19.474 -41.644  1.00  0.00     0.087 C 
ATOM     33  C   UNL     1       0.332 -19.868 -40.797  1.00  0.00     0.065 C 
ATOM     34  N   UNL     1      -1.944 -20.151 -41.826  1.00  0.00    -0.093 NA
BRANCH  34  35
ATOM     35  O   UNL     1      -1.898 -21.353 -41.113  1.00  0.00    -0.411 OA
ATOM     36  H   UNL     1      -2.756 -21.760 -41.336  1.00  0.00     0.330 HD
ENDBRANCH  34  35
ENDBRANCH  17  25
ENDBRANCH   4  13
TORSDOF 8
ENDMDL
MODEL 2
REMARK minimizedAffinity -8.31483841
REMARK minimizedRMSD -1
REMARK SMILES CN(C)CCOc1ccc(-c2nc(-c3ccncc3)c(-c3ccc4c(c3)CC/C4=N\O)[nH]2)cc1
REMARK SMILES IDX 7 1 8 2 9 3 10 4 33 5 34 6 6 7 5 8 4 9 2 10 1 11 3 12 11 13
REMARK SMILES IDX 12 14 32 15 13 16 20 17 14 19 15 20 19 21 16 22 18 23 17 24
REMARK SMILES IDX 21 25 22 26 26 27 23 28 25 29 24 30 27 31 29 32 28 33 30 34
REMARK SMILES IDX 31 35
REMARK H PARENT 32 18 31 36
ROOT
ATOM      1  C   UNL     1       3.656 -18.766 -40.442  1.00  0.00     0.119 A 
ATOM      2  C   UNL     1       3.500 -18.107 -41.659  1.00  0.00     0.047 A 
ATOM      3  C   UNL     1       4.452 -17.166 -42.074  1.00  0.00     0.016 A 
ATOM      4  C   UNL     1       5.574 -16.865 -41.286  1.00  0.00     0.017 A 
ATOM      5  C   UNL     1       5.720 -17.535 -40.066  1.00  0.00     0.016 A 
ATOM      6  C   UNL     1       4.768 -18.475 -39.652  1.00  0.00     0.047 A 
ENDROOT
BRANCH   1   7
ATOM      7  O   UNL     1       2.809 -19.700 -39.916  1.00  0.00    -0.492 OA
BRANCH   7   8
ATOM      8  C   UNL     1       1.958 -20.399 -40.831  1.00  0.00     0.245 C 
BRANCH   8   9
ATOM      9  C   UNL     1       0.508 -19.907 -40.659  1.00  0.00     0.125 C 
BRANCH   9  10
ATOM     10  N   UNL     1      -0.427 -20.343 -41.721  1.00  0.00    -0.306 NA
ATOM     11  C   UNL     1      -0.946 -21.691 -41.475  1.00  0.00     0.105 C 
ATOM     12  C   UNL     1      -1.540 -19.396 -41.825  1.00  0.00     0.105 C 
ENDBRANCH   9  10
ENDBRANCH   8   9
ENDBRANCH   7   8
ENDBRANCH   1   7
BRANCH   4  13
ATOM     13  C   UNL     1       6.537 -15.870 -41.770  1.00  0.00     0.138 A 
ATOM     14  N   UNL     1       7.843 -16.037 -41.858  1.00  0.00    -0.228 NA
ATOM     15  N   UNL     1       6.211 -14.607 -42.203  1.00  0.00    -0.337 N 
ATOM     16  C   UNL     1       8.364 -14.865 -42.363  1.00  0.00     0.097 A 
ATOM     17  C   UNL     1       7.357 -13.937 -42.574  1.00  0.00     0.074 A 
ATOM     18  H   UNL     1       5.284 -14.211 -42.212  1.00  0.00     0.168 HD
BRANCH  16  19
ATOM     19  C   UNL     1       9.790 -14.704 -42.593  1.00  0.00     0.005 A 
ATOM     20  C   UNL     1      10.709 -14.623 -41.546  1.00  0.00     0.030 A 
ATOM     21  C   UNL     1      10.258 -14.595 -43.904  1.00  0.00     0.030 A 
ATOM     22  C   UNL     1      12.050 -14.466 -41.856  1.00  0.00     0.111 A 
ATOM     23  C   UNL     1      11.618 -14.438 -44.111  1.00  0.00     0.111 A 
ATOM     24  N   UNL     1      12.527 -14.378 -43.116  1.00  0.00    -0.265 NA
ENDBRANCH  16  19
BRANCH  17  25
ATOM     25  C   UNL     1       7.333 -12.544 -43.004  1.00  0.00     0.001 A 
ATOM     26  C   UNL     1       7.498 -11.511 -42.058  1.00  0.00     0.011 A 
ATOM     27  C   UNL     1       7.137 -12.228 -44.360  1.00  0.00     0.014 A 
ATOM     28  C   UNL     1       7.476 -10.170 -42.449  1.00  0.00     0.011 A 
ATOM     29  C   UNL     1       7.115 -10.894 -44.742  1.00  0.00    -0.038 A 
ATOM     30  C   UNL     1       7.283  -9.897 -43.790  1.00  0.00     0.003 A 
ATOM     31  C   UNL     1       6.933 -10.346 -46.122  1.00  0.00     0.043 C 
ATOM     32  C   UNL     1       7.219  -8.610 -44.461  1.00  0.00     0.087 C 
ATOM     33  C   UNL     1       6.995  -8.821 -45.940  1.00  0.00     0.065 C 
ATOM     34  N   UNL     1       7.340  -7.479 -43.843  1.00  0.00    -0.093 NA
BRANCH  34  35
ATOM     35  O   UNL     1       7.236  -6.414 -44.744  1.00  0.00    -0.411 OA
ATOM     36  H   UNL     1       7.348  -5.638 -44.164  1.00  0.00     0.330 HD
ENDBRANCH  34  35
ENDBRANCH  17  25
ENDBRANCH   4  13
TORSDOF 8
ENDMDL
MODEL 3
REMARK minimizedAffinity -8.29656792
REMARK minimizedRMSD -1
REMARK SMILES CN(C)CCOc1ccc(-c2nc(-c3ccncc3)c(-c3ccc4c(c3)CC/C4=N\O)[nH]2)cc1
REMARK SMILES IDX 7 1 8 2 9 3 10 4 33 5 34 6 6 7 5 8 4 9 2 10 1 11 3 12 11 13
REMARK SMILES IDX 12 14 32 15 13 16 20 17 14 19 15 20 19 21 16 22 18 23 17 24
REMARK SMILES IDX 21 25 22 26 26 27 23 28 25 29 24 30 27 31 29 32 28 33 30 34
REMARK SMILES IDX 31 35
REMARK H PARENT 32 18 31 36
ROOT
ATOM      1  C   UNL     1      -0.686  -8.488 -44.622  1.00  0.00     0.119 A 
ATOM      2  C   UNL     1       0.194  -8.989 -45.578  1.00  0.00     0.047 A 
ATOM      3  C   UNL     1       0.460 -10.363 -45.634  1.00  0.00     0.016 A 
ATOM      4  C   UNL     1      -0.143 -11.263 -44.742  1.00  0.00     0.017 A 
ATOM      5  C   UNL     1      -1.028 -10.748 -43.786  1.00  0.00     0.016 A 
ATOM      6  C   UNL     1      -1.293  -9.374 -43.730  1.00  0.00     0.047 A 
ENDROOT
BRANCH   1   7
ATOM      7  O   UNL     1      -1.035  -7.178 -44.452  1.00  0.00    -0.492 OA
BRANCH   7   8
ATOM      8  C   UNL     1      -2.218  -6.911 -43.692  1.00  0.00     0.245 C 
BRANCH   8   9
ATOM      9  C   UNL     1      -3.312  -6.358 -44.626  1.00  0.00     0.125 C 
BRANCH   9  10
ATOM     10  N   UNL     1      -4.662  -6.925 -44.407  1.00  0.00    -0.306 NA
ATOM     11  C   UNL     1      -5.574  -5.951 -43.803  1.00  0.00     0.105 C 
ATOM     12  C   UNL     1      -5.215  -7.399 -45.678  1.00  0.00     0.105 C 
ENDBRANCH   9  10
ENDBRANCH   8   9
ENDBRANCH   7   8
ENDBRANCH   1   7
BRANCH   4  13
ATOM     13  C   UNL     1       0.174 -12.691 -44.846  1.00  0.00     0.138 A 
ATOM     14  N   UNL     1       0.915 -13.252 -45.783  1.00  0.00    -0.228 NA
ATOM     15  N   UNL     1      -0.264 -13.659 -43.974  1.00  0.00    -0.337 N 
ATOM     16  C   UNL     1       0.962 -14.601 -45.503  1.00  0.00     0.097 A 
ATOM     17  C   UNL     1       0.210 -14.889 -44.375  1.00  0.00     0.074 A 
ATOM     18  H   UNL     1      -0.871 -13.505 -43.185  1.00  0.00     0.168 HD
BRANCH  16  19
ATOM     19  C   UNL     1       1.704 -15.526 -46.343  1.00  0.00     0.005 A 
ATOM     20  C   UNL     1       1.104 -16.232 -47.386  1.00  0.00     0.030 A 
ATOM     21  C   UNL     1       3.058 -15.743 -46.081  1.00  0.00     0.030 A 
ATOM     22  C   UNL     1       1.887 -17.096 -48.134  1.00  0.00     0.111 A 
ATOM     23  C   UNL     1       3.756 -16.629 -46.884  1.00  0.00     0.111 A 
ATOM     24  N   UNL     1       3.201 -17.307 -47.911  1.00  0.00    -0.265 NA
ENDBRANCH  16  19
BRANCH  17  25
ATOM     25  C   UNL     1      -0.155 -16.120 -43.686  1.00  0.00     0.001 A 
ATOM     26  C   UNL     1      -1.386 -16.749 -43.969  1.00  0.00     0.011 A 
ATOM     27  C   UNL     1       0.714 -16.679 -42.732  1.00  0.00     0.014 A 
ATOM     28  C   UNL     1      -1.756 -17.927 -43.317  1.00  0.00     0.011 A 
ATOM     29  C   UNL     1       0.340 -17.850 -42.088  1.00  0.00    -0.038 A 
ATOM     30  C   UNL     1      -0.876 -18.449 -42.388  1.00  0.00     0.003 A 
ATOM     31  C   UNL     1       1.116 -18.609 -41.058  1.00  0.00     0.043 C 
ATOM     32  C   UNL     1      -1.008 -19.647 -41.577  1.00  0.00     0.087 C 
ATOM     33  C   UNL     1       0.218 -19.806 -40.708  1.00  0.00     0.065 C 
ATOM     34  N   UNL     1      -2.038 -20.430 -41.625  1.00  0.00    -0.093 NA
BRANCH  34  35
ATOM     35  O   UNL     1      -1.884 -21.498 -40.735  1.00  0.00    -0.411 OA
ATOM     36  H   UNL     1      -2.707 -22.003 -40.872  1.00  0.00     0.330 HD
ENDBRANCH  34  35
ENDBRANCH  17  25
ENDBRANCH   4  13
TORSDOF 8
ENDMDL
MODEL 4
REMARK minimizedAffinity -8.02128792
REMARK minimizedRMSD -1
REMARK SMILES CN(C)CCOc1ccc(-c2nc(-c3ccncc3)c(-c3ccc4c(c3)CC/C4=N\O)[nH]2)cc1
REMARK SMILES IDX 7 1 8 2 9 3 10 4 33 5 34 6 6 7 5 8 4 9 2 10 1 11 3 12 11 13
REMARK SMILES IDX 12 14 32 15 13 16 20 17 14 19 15 20 19 21 16 22 18 23 17 24
REMARK SMILES IDX 21 25 22 26 26 27 23 28 25 29 24 30 27 31 29 32 28 33 30 34
REMARK SMILES IDX 31 35
REMARK H PARENT 32 18 31 36
ROOT
ATOM      1  C   UNL     1       3.991 -19.671 -41.156  1.00  0.00     0.119 A 
ATOM      2  C   UNL     1       4.691 -19.726 -42.359  1.00  0.00     0.047 A 
ATOM      3  C   UNL     1       5.609 -18.717 -42.683  1.00  0.00     0.016 A 
ATOM      4  C   UNL     1       5.846 -17.639 -41.817  1.00  0.00     0.017 A 
ATOM      5  C   UNL     1       5.138 -17.595 -40.610  1.00  0.00     0.016 A 
ATOM      6  C   UNL     1       4.220 -18.603 -40.287  1.00  0.00     0.047 A 
ENDROOT
BRANCH   1   7
ATOM      7  O   UNL     1       3.070 -20.579 -40.716  1.00  0.00    -0.492 OA
BRANCH   7   8
ATOM      8  C   UNL     1       1.886 -20.740 -41.504  1.00  0.00     0.245 C 
BRANCH   8   9
ATOM      9  C   UNL     1       0.812 -19.744 -41.025  1.00  0.00     0.125 C 
BRANCH   9  10
ATOM     10  N   UNL     1      -0.581 -20.236 -41.121  1.00  0.00    -0.306 NA
ATOM     11  C   UNL     1      -1.457 -19.271 -41.790  1.00  0.00     0.105 C 
ATOM     12  C   UNL     1      -0.609 -21.512 -41.840  1.00  0.00     0.105 C 
ENDBRANCH   9  10
ENDBRANCH   8   9
ENDBRANCH   7   8
ENDBRANCH   1   7
BRANCH   4  13
ATOM     13  C   UNL     1       6.818 -16.611 -42.208  1.00  0.00     0.138 A 
ATOM     14  N   UNL     1       8.130 -16.713 -42.118  1.00  0.00    -0.228 NA
ATOM     15  N   UNL     1       6.493 -15.381 -42.728  1.00  0.00    -0.337 N 
ATOM     16  C   UNL     1       8.658 -15.533 -42.596  1.00  0.00     0.097 A 
ATOM     17  C   UNL     1       7.645 -14.665 -42.972  1.00  0.00     0.074 A 
ATOM     18  H   UNL     1       5.558 -15.034 -42.873  1.00  0.00     0.168 HD
BRANCH  16  19
ATOM     19  C   UNL     1      10.093 -15.306 -42.643  1.00  0.00     0.005 A 
ATOM     20  C   UNL     1      10.808 -14.830 -41.543  1.00  0.00     0.030 A 
ATOM     21  C   UNL     1      10.778 -15.542 -43.836  1.00  0.00     0.030 A 
ATOM     22  C   UNL     1      12.174 -14.639 -41.678  1.00  0.00     0.111 A 
ATOM     23  C   UNL     1      12.144 -15.319 -43.871  1.00  0.00     0.111 A 
ATOM     24  N   UNL     1      12.860 -14.879 -42.815  1.00  0.00    -0.265 NA
ENDBRANCH  16  19
BRANCH  17  25
ATOM     25  C   UNL     1       7.613 -13.290 -43.454  1.00  0.00     0.001 A 
ATOM     26  C   UNL     1       7.748 -13.021 -44.832  1.00  0.00     0.011 A 
ATOM     27  C   UNL     1       7.456 -12.228 -42.545  1.00  0.00     0.014 A 
ATOM     28  C   UNL     1       7.723 -11.711 -45.313  1.00  0.00     0.011 A 
ATOM     29  C   UNL     1       7.432 -10.928 -43.029  1.00  0.00    -0.038 A 
ATOM     30  C   UNL     1       7.565 -10.693 -44.392  1.00  0.00     0.003 A 
ATOM     31  C   UNL     1       7.265  -9.667 -42.242  1.00  0.00     0.043 C 
ATOM     32  C   UNL     1       7.503  -9.259 -44.616  1.00  0.00     0.087 C 
ATOM     33  C   UNL     1       7.319  -8.548 -43.295  1.00  0.00     0.065 C 
ATOM     34  N   UNL     1       7.598  -8.717 -45.787  1.00  0.00    -0.093 NA
BRANCH  34  35
ATOM     35  O   UNL     1       7.505  -7.324 -45.692  1.00  0.00    -0.411 OA
ATOM     36  H   UNL     1       7.583  -7.046 -46.624  1.00  0.00     0.330 HD
ENDBRANCH  34  35
ENDBRANCH  17  25
ENDBRANCH   4  13
TORSDOF 8
ENDMDL
MODEL 5
REMARK minimizedAffinity -7.941679
REMARK minimizedRMSD -1
REMARK SMILES CN(C)CCOc1ccc(-c2nc(-c3ccncc3)c(-c3ccc4c(c3)CC/C4=N\O)[nH]2)cc1
REMARK SMILES IDX 7 1 8 2 9 3 10 4 33 5 34 6 6 7 5 8 4 9 2 10 1 11 3 12 11 13
REMARK SMILES IDX 12 14 32 15 13 16 20 17 14 19 15 20 19 21 16 22 18 23 17 24
REMARK SMILES IDX 21 25 22 26 26 27 23 28 25 29 24 30 27 31 29 32 28 33 30 34
REMARK SMILES IDX 31 35
REMARK H PARENT 32 18 31 36
ROOT
ATOM      1  C   UNL     1      -2.024  -8.499 -46.122  1.00  0.00     0.119 A 
ATOM      2  C   UNL     1      -0.887  -8.496 -45.318  1.00  0.00     0.047 A 
ATOM      3  C   UNL     1      -0.223  -9.698 -45.038  1.00  0.00     0.016 A 
ATOM      4  C   UNL     1      -0.679 -10.922 -45.552  1.00  0.00     0.017 A 
ATOM      5  C   UNL     1      -1.823 -10.912 -46.360  1.00  0.00     0.016 A 
ATOM      6  C   UNL     1      -2.486  -9.710 -46.638  1.00  0.00     0.047 A 
ENDROOT
BRANCH   1   7
ATOM      7  O   UNL     1      -2.767  -7.408 -46.472  1.00  0.00    -0.492 OA
BRANCH   7   8
ATOM      8  C   UNL     1      -3.559  -6.801 -45.446  1.00  0.00     0.245 C 
BRANCH   8   9
ATOM      9  C   UNL     1      -5.012  -7.304 -45.555  1.00  0.00     0.125 C 
BRANCH   9  10
ATOM     10  N   UNL     1      -5.593  -7.807 -44.289  1.00  0.00    -0.306 NA
ATOM     11  C   UNL     1      -5.034  -9.106 -43.907  1.00  0.00     0.105 C 
ATOM     12  C   UNL     1      -5.365  -6.835 -43.217  1.00  0.00     0.105 C 
ENDBRANCH   9  10
ENDBRANCH   8   9
ENDBRANCH   7   8
ENDBRANCH   1   7
BRANCH   4  13
ATOM     13  C   UNL     1       0.055 -12.150 -45.225  1.00  0.00     0.138 A 
ATOM     14  N   UNL     1      -0.397 -13.148 -44.489  1.00  0.00    -0.228 NA
ATOM     15  N   UNL     1       1.333 -12.435 -45.641  1.00  0.00    -0.337 N 
ATOM     16  C   UNL     1       0.604 -14.094 -44.440  1.00  0.00     0.097 A 
ATOM     17  C   UNL     1       1.717 -13.662 -45.144  1.00  0.00     0.074 A 
ATOM     18  H   UNL     1       1.920 -11.827 -46.191  1.00  0.00     0.168 HD
BRANCH  16  19
ATOM     19  C   UNL     1       0.438 -15.338 -43.707  1.00  0.00     0.005 A 
ATOM     20  C   UNL     1       1.375 -15.783 -42.773  1.00  0.00     0.030 A 
ATOM     21  C   UNL     1      -0.679 -16.134 -43.965  1.00  0.00     0.030 A 
ATOM     22  C   UNL     1       1.139 -16.984 -42.122  1.00  0.00     0.111 A 
ATOM     23  C   UNL     1      -0.826 -17.319 -43.264  1.00  0.00     0.111 A 
ATOM     24  N   UNL     1       0.056 -17.759 -42.342  1.00  0.00    -0.265 NA
ENDBRANCH  16  19
BRANCH  17  25
ATOM     25  C   UNL     1       3.056 -14.197 -45.355  1.00  0.00     0.001 A 
ATOM     26  C   UNL     1       3.224 -15.468 -45.942  1.00  0.00     0.011 A 
ATOM     27  C   UNL     1       4.183 -13.449 -44.968  1.00  0.00     0.014 A 
ATOM     28  C   UNL     1       4.498 -16.000 -46.150  1.00  0.00     0.011 A 
ATOM     29  C   UNL     1       5.446 -13.983 -45.177  1.00  0.00    -0.038 A 
ATOM     30  C   UNL     1       5.582 -15.237 -45.758  1.00  0.00     0.003 A 
ATOM     31  C   UNL     1       6.764 -13.355 -44.851  1.00  0.00     0.043 C 
ATOM     32  C   UNL     1       6.999 -15.543 -45.858  1.00  0.00     0.087 C 
ATOM     33  C   UNL     1       7.805 -14.395 -45.297  1.00  0.00     0.065 C 
ATOM     34  N   UNL     1       7.455 -16.646 -46.359  1.00  0.00    -0.093 NA
BRANCH  34  35
ATOM     35  O   UNL     1       8.854 -16.660 -46.322  1.00  0.00    -0.411 OA
ATOM     36  H   UNL     1       9.064 -17.523 -46.725  1.00  0.00     0.330 HD
ENDBRANCH  34  35
ENDBRANCH  17  25
ENDBRANCH   4  13
TORSDOF 8
ENDMDL
MODEL 6
REMARK minimizedAffinity -7.91450024
REMARK minimizedRMSD -1
REMARK SMILES CN(C)CCOc1ccc(-c2nc(-c3ccncc3)c(-c3ccc4c(c3)CC/C4=N\O)[nH]2)cc1
REMARK SMILES IDX 7 1 8 2 9 3 10 4 33 5 34 6 6 7 5 8 4 9 2 10 1 11 3 12 11 13
REMARK SMILES IDX 12 14 32 15 13 16 20 17 14 19 15 20 19 21 16 22 18 23 17 24
REMARK SMILES IDX 21 25 22 26 26 27 23 28 25 29 24 30 27 31 29 32 28 33 30 34
REMARK SMILES IDX 31 35
REMARK H PARENT 32 18 31 36
ROOT
ATOM      1  C   UNL     1      -2.298  -8.695 -46.238  1.00  0.00     0.119 A 
ATOM      2  C   UNL     1      -2.561  -9.926 -46.835  1.00  0.00     0.047 A 
ATOM      3  C   UNL     1      -1.803 -11.051 -46.484  1.00  0.00     0.016 A 
ATOM      4  C   UNL     1      -0.773 -10.972 -45.534  1.00  0.00     0.017 A 
ATOM      5  C   UNL     1      -0.520  -9.730 -44.940  1.00  0.00     0.016 A 
ATOM      6  C   UNL     1      -1.276  -8.606 -45.292  1.00  0.00     0.047 A 
ENDROOT
BRANCH   1   7
ATOM      7  O   UNL     1      -2.952  -7.522 -46.486  1.00  0.00    -0.492 OA
BRANCH   7   8
ATOM      8  C   UNL     1      -2.270  -6.310 -46.143  1.00  0.00     0.245 C 
BRANCH   8   9
ATOM      9  C   UNL     1      -3.247  -5.359 -45.425  1.00  0.00     0.125 C 
BRANCH   9  10
ATOM     10  N   UNL     1      -3.057  -5.263 -43.959  1.00  0.00    -0.306 NA
ATOM     11  C   UNL     1      -3.512  -6.472 -43.268  1.00  0.00     0.105 C 
ATOM     12  C   UNL     1      -1.645  -5.020 -43.655  1.00  0.00     0.105 C 
ENDBRANCH   9  10
ENDBRANCH   8   9
ENDBRANCH   7   8
ENDBRANCH   1   7
BRANCH   4  13
ATOM     13  C   UNL     1      -0.012 -12.184 -45.207  1.00  0.00     0.138 A 
ATOM     14  N   UNL     1       1.235 -12.432 -45.560  1.00  0.00    -0.228 NA
ATOM     15  N   UNL     1      -0.498 -13.243 -44.479  1.00  0.00    -0.337 N 
ATOM     16  C   UNL     1       1.558 -13.668 -45.044  1.00  0.00     0.097 A 
ATOM     17  C   UNL     1       0.475 -14.212 -44.370  1.00  0.00     0.074 A 
ATOM     18  H   UNL     1      -1.434 -13.323 -44.113  1.00  0.00     0.168 HD
BRANCH  16  19
ATOM     19  C   UNL     1       2.872 -14.256 -45.244  1.00  0.00     0.005 A 
ATOM     20  C   UNL     1       4.044 -13.617 -44.836  1.00  0.00     0.030 A 
ATOM     21  C   UNL     1       2.973 -15.487 -45.894  1.00  0.00     0.030 A 
ATOM     22  C   UNL     1       5.255 -14.248 -45.070  1.00  0.00     0.111 A 
ATOM     23  C   UNL     1       4.231 -16.036 -46.083  1.00  0.00     0.111 A 
ATOM     24  N   UNL     1       5.375 -15.447 -45.679  1.00  0.00    -0.265 NA
ENDBRANCH  16  19
BRANCH  17  25
ATOM     25  C   UNL     1       0.224 -15.491 -43.717  1.00  0.00     0.001 A 
ATOM     26  C   UNL     1      -0.911 -16.251 -44.067  1.00  0.00     0.011 A 
ATOM     27  C   UNL     1       1.108 -15.964 -42.731  1.00  0.00     0.014 A 
ATOM     28  C   UNL     1      -1.172 -17.477 -43.451  1.00  0.00     0.011 A 
ATOM     29  C   UNL     1       0.843 -17.183 -42.122  1.00  0.00    -0.038 A 
ATOM     30  C   UNL     1      -0.281 -17.912 -42.488  1.00  0.00     0.003 A 
ATOM     31  C   UNL     1       1.654 -17.867 -41.067  1.00  0.00     0.043 C 
ATOM     32  C   UNL     1      -0.309 -19.133 -41.701  1.00  0.00     0.087 C 
ATOM     33  C   UNL     1       0.886 -19.167 -40.777  1.00  0.00     0.065 C 
ATOM     34  N   UNL     1      -1.238 -20.028 -41.809  1.00  0.00    -0.093 NA
BRANCH  34  35
ATOM     35  O   UNL     1      -1.002 -21.089 -40.929  1.00  0.00    -0.411 OA
ATOM     36  H   UNL     1      -1.754 -21.682 -41.111  1.00  0.00     0.330 HD
ENDBRANCH  34  35
ENDBRANCH  17  25
ENDBRANCH   4  13
TORSDOF 8
ENDMDL
MODEL 7
REMARK minimizedAffinity -7.70316887
REMARK minimizedRMSD -1
REMARK SMILES CN(C)CCOc1ccc(-c2nc(-c3ccncc3)c(-c3ccc4c(c3)CC/C4=N\O)[nH]2)cc1
REMARK SMILES IDX 7 1 8 2 9 3 10 4 33 5 34 6 6 7 5 8 4 9 2 10 1 11 3 12 11 13
REMARK SMILES IDX 12 14 32 15 13 16 20 17 14 19 15 20 19 21 16 22 18 23 17 24
REMARK SMILES IDX 21 25 22 26 26 27 23 28 25 29 24 30 27 31 29 32 28 33 30 34
REMARK SMILES IDX 31 35
REMARK H PARENT 32 18 31 36
ROOT
ATOM      1  C   UNL     1       3.930 -19.706 -41.126  1.00  0.00     0.119 A 
ATOM      2  C   UNL     1       4.577 -19.679 -42.359  1.00  0.00     0.047 A 
ATOM      3  C   UNL     1       5.414 -18.604 -42.688  1.00  0.00     0.016 A 
ATOM      4  C   UNL     1       5.622 -17.539 -41.798  1.00  0.00     0.017 A 
ATOM      5  C   UNL     1       4.968 -17.579 -40.560  1.00  0.00     0.016 A 
ATOM      6  C   UNL     1       4.131 -18.653 -40.232  1.00  0.00     0.047 A 
ENDROOT
BRANCH   1   7
ATOM      7  O   UNL     1       3.089 -20.684 -40.677  1.00  0.00    -0.492 OA
BRANCH   7   8
ATOM      8  C   UNL     1       1.898 -20.919 -41.435  1.00  0.00     0.245 C 
BRANCH   8   9
ATOM      9  C   UNL     1       0.825 -19.888 -41.033  1.00  0.00     0.125 C 
BRANCH   9  10
ATOM     10  N   UNL     1      -0.571 -20.368 -41.142  1.00  0.00    -0.306 NA
ATOM     11  C   UNL     1      -1.441 -19.382 -41.788  1.00  0.00     0.105 C 
ATOM     12  C   UNL     1      -0.607 -21.626 -41.892  1.00  0.00     0.105 C 
ENDBRANCH   9  10
ENDBRANCH   8   9
ENDBRANCH   7   8
ENDBRANCH   1   7
BRANCH   4  13
ATOM     13  C   UNL     1       6.508 -16.440 -42.197  1.00  0.00     0.138 A 
ATOM     14  N   UNL     1       6.238 -15.152 -42.090  1.00  0.00    -0.228 NA
ATOM     15  N   UNL     1       7.757 -16.598 -42.747  1.00  0.00    -0.337 N 
ATOM     16  C   UNL     1       7.337 -14.473 -42.571  1.00  0.00     0.097 A 
ATOM     17  C   UNL     1       8.305 -15.362 -43.010  1.00  0.00     0.074 A 
ATOM     18  H   UNL     1       8.195 -17.481 -42.963  1.00  0.00     0.168 HD
BRANCH  16  19
ATOM     19  C   UNL     1       7.380 -13.020 -42.598  1.00  0.00     0.005 A 
ATOM     20  C   UNL     1       7.623 -12.260 -41.453  1.00  0.00     0.030 A 
ATOM     21  C   UNL     1       7.140 -12.357 -43.803  1.00  0.00     0.030 A 
ATOM     22  C   UNL     1       7.643 -10.880 -41.570  1.00  0.00     0.111 A 
ATOM     23  C   UNL     1       7.179 -10.972 -43.817  1.00  0.00     0.111 A 
ATOM     24  N   UNL     1       7.433 -10.218 -42.727  1.00  0.00    -0.265 NA
ENDBRANCH  16  19
BRANCH  17  25
ATOM     25  C   UNL     1       9.596 -15.213 -43.669  1.00  0.00     0.001 A 
ATOM     26  C   UNL     1      10.726 -14.810 -42.927  1.00  0.00     0.011 A 
ATOM     27  C   UNL     1       9.717 -15.464 -45.048  1.00  0.00     0.014 A 
ATOM     28  C   UNL     1      11.971 -14.659 -43.541  1.00  0.00     0.011 A 
ATOM     29  C   UNL     1      10.957 -15.312 -45.652  1.00  0.00    -0.038 A 
ATOM     30  C   UNL     1      12.053 -14.916 -44.896  1.00  0.00     0.003 A 
ATOM     31  C   UNL     1      11.302 -15.537 -47.090  1.00  0.00     0.043 C 
ATOM     32  C   UNL     1      13.209 -14.839 -45.773  1.00  0.00     0.087 C 
ATOM     33  C   UNL     1      12.802 -15.216 -47.179  1.00  0.00     0.065 C 
ATOM     34  N   UNL     1      14.388 -14.495 -45.367  1.00  0.00    -0.093 NA
BRANCH  34  35
ATOM     35  O   UNL     1      15.297 -14.511 -46.431  1.00  0.00    -0.411 OA
ATOM     36  H   UNL     1      16.129 -14.244 -45.998  1.00  0.00     0.330 HD
ENDBRANCH  34  35
ENDBRANCH  17  25
ENDBRANCH   4  13
TORSDOF 8
ENDMDL
MODEL 8
REMARK minimizedAffinity -7.66308594
REMARK minimizedRMSD -1
REMARK SMILES CN(C)CCOc1ccc(-c2nc(-c3ccncc3)c(-c3ccc4c(c3)CC/C4=N\O)[nH]2)cc1
REMARK SMILES IDX 7 1 8 2 9 3 10 4 33 5 34 6 6 7 5 8 4 9 2 10 1 11 3 12 11 13
REMARK SMILES IDX 12 14 32 15 13 16 20 17 14 19 15 20 19 21 16 22 18 23 17 24
REMARK SMILES IDX 21 25 22 26 26 27 23 28 25 29 24 30 27 31 29 32 28 33 30 34
REMARK SMILES IDX 31 35
REMARK H PARENT 32 18 31 36
ROOT
ATOM      1  C   UNL     1       0.170 -18.518 -41.766  1.00  0.00     0.119 A 
ATOM      2  C   UNL     1       1.309 -17.741 -41.567  1.00  0.00     0.047 A 
ATOM      3  C   UNL     1       1.435 -16.504 -42.212  1.00  0.00     0.016 A 
ATOM      4  C   UNL     1       0.432 -16.018 -43.065  1.00  0.00     0.017 A 
ATOM      5  C   UNL     1      -0.709 -16.807 -43.256  1.00  0.00     0.016 A 
ATOM      6  C   UNL     1      -0.834 -18.044 -42.611  1.00  0.00     0.047 A 
ENDROOT
BRANCH   1   7
ATOM      7  O   UNL     1      -0.083 -19.738 -41.206  1.00  0.00    -0.492 OA
BRANCH   7   8
ATOM      8  C   UNL     1       0.889 -20.767 -41.418  1.00  0.00     0.245 C 
BRANCH   8   9
ATOM      9  C   UNL     1       1.960 -20.695 -40.312  1.00  0.00     0.125 C 
BRANCH   9  10
ATOM     10  N   UNL     1       3.356 -20.614 -40.801  1.00  0.00    -0.306 NA
ATOM     11  C   UNL     1       3.440 -20.810 -42.250  1.00  0.00     0.105 C 
ATOM     12  C   UNL     1       3.935 -19.317 -40.442  1.00  0.00     0.105 C 
ENDBRANCH   9  10
ENDBRANCH   8   9
ENDBRANCH   7   8
ENDBRANCH   1   7
BRANCH   4  13
ATOM     13  C   UNL     1       0.618 -14.715 -43.715  1.00  0.00     0.138 A 
ATOM     14  N   UNL     1      -0.339 -13.956 -44.214  1.00  0.00    -0.228 NA
ATOM     15  N   UNL     1       1.831 -14.097 -43.900  1.00  0.00    -0.337 N 
ATOM     16  C   UNL     1       0.269 -12.827 -44.720  1.00  0.00     0.097 A 
ATOM     17  C   UNL     1       1.643 -12.898 -44.551  1.00  0.00     0.074 A 
ATOM     18  H   UNL     1       2.728 -14.476 -43.638  1.00  0.00     0.168 HD
BRANCH  16  19
ATOM     19  C   UNL     1      -0.501 -11.767 -45.347  1.00  0.00     0.005 A 
ATOM     20  C   UNL     1      -0.775 -10.561 -44.700  1.00  0.00     0.030 A 
ATOM     21  C   UNL     1      -1.013 -11.968 -46.631  1.00  0.00     0.030 A 
ATOM     22  C   UNL     1      -1.519  -9.605 -45.373  1.00  0.00     0.111 A 
ATOM     23  C   UNL     1      -1.749 -10.952 -47.218  1.00  0.00     0.111 A 
ATOM     24  N   UNL     1      -2.008  -9.771 -46.620  1.00  0.00    -0.265 NA
ENDBRANCH  16  19
BRANCH  17  25
ATOM     25  C   UNL     1       2.760 -12.054 -44.955  1.00  0.00     0.001 A 
ATOM     26  C   UNL     1       4.075 -12.563 -44.932  1.00  0.00     0.011 A 
ATOM     27  C   UNL     1       2.529 -10.727 -45.362  1.00  0.00     0.014 A 
ATOM     28  C   UNL     1       5.159 -11.769 -45.312  1.00  0.00     0.011 A 
ATOM     29  C   UNL     1       3.611  -9.943 -45.738  1.00  0.00    -0.038 A 
ATOM     30  C   UNL     1       4.895 -10.472 -45.708  1.00  0.00     0.003 A 
ATOM     31  C   UNL     1       3.586  -8.524 -46.210  1.00  0.00     0.043 C 
ATOM     32  C   UNL     1       5.823  -9.444 -46.149  1.00  0.00     0.087 C 
ATOM     33  C   UNL     1       5.060  -8.182 -46.479  1.00  0.00     0.065 C 
ATOM     34  N   UNL     1       7.101  -9.627 -46.230  1.00  0.00    -0.093 NA
BRANCH  34  35
ATOM     35  O   UNL     1       7.735  -8.465 -46.683  1.00  0.00    -0.411 OA
ATOM     36  H   UNL     1       8.673  -8.734 -46.704  1.00  0.00     0.330 HD
ENDBRANCH  34  35
ENDBRANCH  17  25
ENDBRANCH   4  13
TORSDOF 8
ENDMDL
MODEL 9
REMARK minimizedAffinity -7.61482716
REMARK minimizedRMSD -1
REMARK SMILES CN(C)CCOc1ccc(-c2nc(-c3ccncc3)c(-c3ccc4c(c3)CC/C4=N\O)[nH]2)cc1
REMARK SMILES IDX 7 1 8 2 9 3 10 4 33 5 34 6 6 7 5 8 4 9 2 10 1 11 3 12 11 13
REMARK SMILES IDX 12 14 32 15 13 16 20 17 14 19 15 20 19 21 16 22 18 23 17 24
REMARK SMILES IDX 21 25 22 26 26 27 23 28 25 29 24 30 27 31 29 32 28 33 30 34
REMARK SMILES IDX 31 35
REMARK H PARENT 32 18 31 36
ROOT
ATOM      1  C   UNL     1       1.028 -19.689 -41.036  1.00  0.00     0.119 A 
ATOM      2  C   UNL     1       1.777 -20.789 -41.446  1.00  0.00     0.047 A 
ATOM      3  C   UNL     1       3.150 -20.649 -41.692  1.00  0.00     0.016 A 
ATOM      4  C   UNL     1       3.800 -19.416 -41.533  1.00  0.00     0.017 A 
ATOM      5  C   UNL     1       3.036 -18.318 -41.119  1.00  0.00     0.016 A 
ATOM      6  C   UNL     1       1.665 -18.458 -40.874  1.00  0.00     0.047 A 
ENDROOT
BRANCH   1   7
ATOM      7  O   UNL     1      -0.311 -19.680 -40.765  1.00  0.00    -0.492 OA
BRANCH   7   8
ATOM      8  C   UNL     1      -1.198 -19.973 -41.850  1.00  0.00     0.245 C 
BRANCH   8   9
ATOM      9  C   UNL     1      -1.610 -18.660 -42.543  1.00  0.00     0.125 C 
BRANCH   9  10
ATOM     10  N   UNL     1      -2.967 -18.175 -42.200  1.00  0.00    -0.306 NA
ATOM     11  C   UNL     1      -3.574 -17.424 -43.301  1.00  0.00     0.105 C 
ATOM     12  C   UNL     1      -3.824 -19.307 -41.840  1.00  0.00     0.105 C 
ENDBRANCH   9  10
ENDBRANCH   8   9
ENDBRANCH   7   8
ENDBRANCH   1   7
BRANCH   4  13
ATOM     13  C   UNL     1       5.239 -19.328 -41.806  1.00  0.00     0.138 A 
ATOM     14  N   UNL     1       6.168 -20.130 -41.320  1.00  0.00    -0.228 NA
ATOM     15  N   UNL     1       5.830 -18.386 -42.613  1.00  0.00    -0.337 N 
ATOM     16  C   UNL     1       7.374 -19.701 -41.831  1.00  0.00     0.097 A 
ATOM     17  C   UNL     1       7.193 -18.588 -42.638  1.00  0.00     0.074 A 
ATOM     18  H   UNL     1       5.350 -17.635 -43.085  1.00  0.00     0.168 HD
BRANCH  16  19
ATOM     19  C   UNL     1       8.621 -20.370 -41.499  1.00  0.00     0.005 A 
ATOM     20  C   UNL     1       9.026 -21.547 -42.130  1.00  0.00     0.030 A 
ATOM     21  C   UNL     1       9.430 -19.837 -40.494  1.00  0.00     0.030 A 
ATOM     22  C   UNL     1      10.230 -22.119 -41.749  1.00  0.00     0.111 A 
ATOM     23  C   UNL     1      10.614 -20.484 -40.182  1.00  0.00     0.111 A 
ATOM     24  N   UNL     1      11.036 -21.611 -40.793  1.00  0.00    -0.265 NA
ENDBRANCH  16  19
BRANCH  17  25
ATOM     25  C   UNL     1       8.095 -17.693 -43.350  1.00  0.00     0.001 A 
ATOM     26  C   UNL     1       8.332 -17.879 -44.728  1.00  0.00     0.011 A 
ATOM     27  C   UNL     1       8.736 -16.646 -42.664  1.00  0.00     0.014 A 
ATOM     28  C   UNL     1       9.195 -17.033 -45.429  1.00  0.00     0.011 A 
ATOM     29  C   UNL     1       9.593 -15.810 -43.365  1.00  0.00    -0.038 A 
ATOM     30  C   UNL     1       9.806 -16.015 -44.722  1.00  0.00     0.003 A 
ATOM     31  C   UNL     1      10.360 -14.641 -42.834  1.00  0.00     0.043 C 
ATOM     32  C   UNL     1      10.736 -15.004 -45.196  1.00  0.00     0.087 C 
ATOM     33  C   UNL     1      11.130 -14.102 -44.050  1.00  0.00     0.065 C 
ATOM     34  N   UNL     1      11.137 -14.926 -46.424  1.00  0.00    -0.093 NA
BRANCH  34  35
ATOM     35  O   UNL     1      12.026 -13.858 -46.583  1.00  0.00    -0.411 OA
ATOM     36  H   UNL     1      12.243 -13.907 -47.533  1.00  0.00     0.330 HD
ENDBRANCH  34  35
ENDBRANCH  17  25
ENDBRANCH   4  13
TORSDOF 8
ENDMDL
MODEL 10
REMARK minimizedAffinity -7.58164501
REMARK minimizedRMSD -1
REMARK SMILES CN(C)CCOc1ccc(-c2nc(-c3ccncc3)c(-c3ccc4c(c3)CC/C4=N\O)[nH]2)cc1
REMARK SMILES IDX 7 1 8 2 9 3 10 4 33 5 34 6 6 7 5 8 4 9 2 10 1 11 3 12 11 13
REMARK SMILES IDX 12 14 32 15 13 16 20 17 14 19 15 20 19 21 16 22 18 23 17 24
REMARK SMILES IDX 21 25 22 26 26 27 23 28 25 29 24 30 27 31 29 32 28 33 30 34
REMARK SMILES IDX 31 35
REMARK H PARENT 32 18 31 36
ROOT
ATOM      1  C   UNL     1      -2.026 -10.399 -44.825  1.00  0.00     0.119 A 
ATOM      2  C   UNL     1      -1.433 -10.955 -45.956  1.00  0.00     0.047 A 
ATOM      3  C   UNL     1      -0.042 -11.115 -46.011  1.00  0.00     0.016 A 
ATOM      4  C   UNL     1       0.782 -10.726 -44.944  1.00  0.00     0.017 A 
ATOM      5  C   UNL     1       0.174 -10.170 -43.812  1.00  0.00     0.016 A 
ATOM      6  C   UNL     1      -1.216 -10.009 -43.758  1.00  0.00     0.047 A 
ENDROOT
BRANCH   1   7
ATOM      7  O   UNL     1      -3.362 -10.183 -44.637  1.00  0.00    -0.492 OA
BRANCH   7   8
ATOM      8  C   UNL     1      -3.769  -9.696 -43.355  1.00  0.00     0.245 C 
BRANCH   8   9
ATOM      9  C   UNL     1      -5.145  -9.011 -43.480  1.00  0.00     0.125 C 
BRANCH   9  10
ATOM     10  N   UNL     1      -5.094  -7.573 -43.826  1.00  0.00    -0.306 NA
ATOM     11  C   UNL     1      -3.796  -6.977 -43.502  1.00  0.00     0.105 C 
ATOM     12  C   UNL     1      -5.379  -7.393 -45.252  1.00  0.00     0.105 C 
ENDBRANCH   9  10
ENDBRANCH   8   9
ENDBRANCH   7   8
ENDBRANCH   1   7
BRANCH   4  13
ATOM     13  C   UNL     1       2.233 -10.916 -45.058  1.00  0.00     0.138 A 
ATOM     14  N   UNL     1       3.130  -9.958 -45.197  1.00  0.00    -0.228 NA
ATOM     15  N   UNL     1       2.869 -12.134 -45.039  1.00  0.00    -0.337 N 
ATOM     16  C   UNL     1       4.363 -10.571 -45.259  1.00  0.00     0.097 A 
ATOM     17  C   UNL     1       4.227 -11.948 -45.179  1.00  0.00     0.074 A 
ATOM     18  H   UNL     1       2.414 -13.032 -44.973  1.00  0.00     0.168 HD
BRANCH  16  19
ATOM     19  C   UNL     1       5.587  -9.801 -45.410  1.00  0.00     0.005 A 
ATOM     20  C   UNL     1       6.375  -9.434 -44.319  1.00  0.00     0.030 A 
ATOM     21  C   UNL     1       5.975  -9.387 -46.685  1.00  0.00     0.030 A 
ATOM     22  C   UNL     1       7.525  -8.697 -44.554  1.00  0.00     0.111 A 
ATOM     23  C   UNL     1       7.140  -8.651 -46.818  1.00  0.00     0.111 A 
ATOM     24  N   UNL     1       7.929  -8.302 -45.779  1.00  0.00    -0.265 NA
ENDBRANCH  16  19
BRANCH  17  25
ATOM     25  C   UNL     1       5.155 -13.067 -45.273  1.00  0.00     0.001 A 
ATOM     26  C   UNL     1       4.798 -14.222 -45.999  1.00  0.00     0.011 A 
ATOM     27  C   UNL     1       6.406 -13.001 -44.633  1.00  0.00     0.014 A 
ATOM     28  C   UNL     1       5.672 -15.307 -46.098  1.00  0.00     0.011 A 
ATOM     29  C   UNL     1       7.270 -14.082 -44.735  1.00  0.00    -0.038 A 
ATOM     30  C   UNL     1       6.893 -15.206 -45.459  1.00  0.00     0.003 A 
ATOM     31  C   UNL     1       8.639 -14.211 -44.146  1.00  0.00     0.043 C 
ATOM     32  C   UNL     1       7.977 -16.171 -45.401  1.00  0.00     0.087 C 
ATOM     33  C   UNL     1       9.113 -15.606 -44.581  1.00  0.00     0.065 C 
ATOM     34  N   UNL     1       7.931 -17.328 -45.979  1.00  0.00    -0.093 NA
BRANCH  34  35
ATOM     35  O   UNL     1       9.114 -18.038 -45.750  1.00  0.00    -0.411 OA
ATOM     36  H   UNL     1       8.955 -18.870 -46.234  1.00  0.00     0.330 HD
ENDBRANCH  34  35
ENDBRANCH  17  25
ENDBRANCH   4  13
TORSDOF 8
ENDMDL
MODEL 11
REMARK minimizedAffinity -7.5378108
REMARK minimizedRMSD -1
REMARK SMILES CN(C)CCOc1ccc(-c2nc(-c3ccncc3)c(-c3ccc4c(c3)CC/C4=N\O)[nH]2)cc1
REMARK SMILES IDX 7 1 8 2 9 3 10 4 33 5 34 6 6 7 5 8 4 9 2 10 1 11 3 12 11 13
REMARK SMILES IDX 12 14 32 15 13 16 20 17 14 19 15 20 19 21 16 22 18 23 17 24
REMARK SMILES IDX 21 25 22 26 26 27 23 28 25 29 24 30 27 31 29 32 28 33 30 34
REMARK SMILES IDX 31 35
REMARK H PARENT 32 18 31 36
ROOT
ATOM      1  C   UNL     1       0.432 -14.928 -44.322  1.00  0.00     0.119 A 
ATOM      2  C   UNL     1       0.662 -13.760 -45.046  1.00  0.00     0.047 A 
ATOM      3  C   UNL     1       1.957 -13.232 -45.131  1.00  0.00     0.016 A 
ATOM      4  C   UNL     1       3.044 -13.856 -44.499  1.00  0.00     0.017 A 
ATOM      5  C   UNL     1       2.800 -15.030 -43.776  1.00  0.00     0.016 A 
ATOM      6  C   UNL     1       1.505 -15.557 -43.691  1.00  0.00     0.047 A 
ENDROOT
BRANCH   1   7
ATOM      7  O   UNL     1      -0.774 -15.549 -44.155  1.00  0.00    -0.492 OA
BRANCH   7   8
ATOM      8  C   UNL     1      -0.789 -16.737 -43.356  1.00  0.00     0.245 C 
BRANCH   8   9
ATOM      9  C   UNL     1      -2.202 -17.352 -43.381  1.00  0.00     0.125 C 
BRANCH   9  10
ATOM     10  N   UNL     1      -2.556 -18.147 -42.183  1.00  0.00    -0.306 NA
ATOM     11  C   UNL     1      -3.975 -18.511 -42.167  1.00  0.00     0.105 C 
ATOM     12  C   UNL     1      -1.733 -19.358 -42.128  1.00  0.00     0.105 C 
ENDBRANCH   9  10
ENDBRANCH   8   9
ENDBRANCH   7   8
ENDBRANCH   1   7
BRANCH   4  13
ATOM     13  C   UNL     1       4.378 -13.257 -44.621  1.00  0.00     0.138 A 
ATOM     14  N   UNL     1       4.636 -11.987 -44.868  1.00  0.00    -0.228 NA
ATOM     15  N   UNL     1       5.562 -13.945 -44.497  1.00  0.00    -0.337 N 
ATOM     16  C   UNL     1       6.008 -11.855 -44.894  1.00  0.00     0.097 A 
ATOM     17  C   UNL     1       6.619 -13.080 -44.680  1.00  0.00     0.074 A 
ATOM     18  H   UNL     1       5.649 -14.937 -44.337  1.00  0.00     0.168 HD
BRANCH  16  19
ATOM     19  C   UNL     1       6.643 -10.571 -45.140  1.00  0.00     0.005 A 
ATOM     20  C   UNL     1       7.196  -9.804 -44.114  1.00  0.00     0.030 A 
ATOM     21  C   UNL     1       6.675 -10.069 -46.443  1.00  0.00     0.030 A 
ATOM     22  C   UNL     1       7.779  -8.590 -44.439  1.00  0.00     0.111 A 
ATOM     23  C   UNL     1       7.279  -8.843 -46.666  1.00  0.00     0.111 A 
ATOM     24  N   UNL     1       7.839  -8.094 -45.693  1.00  0.00    -0.265 NA
ENDBRANCH  16  19
BRANCH  17  25
ATOM     25  C   UNL     1       8.002 -13.540 -44.684  1.00  0.00     0.001 A 
ATOM     26  C   UNL     1       8.534 -14.168 -45.828  1.00  0.00     0.011 A 
ATOM     27  C   UNL     1       8.805 -13.364 -43.543  1.00  0.00     0.014 A 
ATOM     28  C   UNL     1       9.856 -14.619 -45.851  1.00  0.00     0.011 A 
ATOM     29  C   UNL     1      10.118 -13.814 -43.571  1.00  0.00    -0.038 A 
ATOM     30  C   UNL     1      10.617 -14.428 -44.713  1.00  0.00     0.003 A 
ATOM     31  C   UNL     1      11.136 -13.717 -42.479  1.00  0.00     0.043 C 
ATOM     32  C   UNL     1      12.002 -14.792 -44.467  1.00  0.00     0.087 C 
ATOM     33  C   UNL     1      12.394 -14.374 -43.069  1.00  0.00     0.065 C 
ATOM     34  N   UNL     1      12.747 -15.385 -45.343  1.00  0.00    -0.093 NA
BRANCH  34  35
ATOM     35  O   UNL     1      14.028 -15.609 -44.827  1.00  0.00    -0.411 OA
ATOM     36  H   UNL     1      14.480 -16.046 -45.572  1.00  0.00     0.330 HD
ENDBRANCH  34  35
ENDBRANCH  17  25
ENDBRANCH   4  13
TORSDOF 8
ENDMDL
MODEL 12
REMARK minimizedAffinity -7.51459217
REMARK minimizedRMSD -1
REMARK SMILES CN(C)CCOc1ccc(-c2nc(-c3ccncc3)c(-c3ccc4c(c3)CC/C4=N\O)[nH]2)cc1
REMARK SMILES IDX 7 1 8 2 9 3 10 4 33 5 34 6 6 7 5 8 4 9 2 10 1 11 3 12 11 13
REMARK SMILES IDX 12 14 32 15 13 16 20 17 14 19 15 20 19 21 16 22 18 23 17 24
REMARK SMILES IDX 21 25 22 26 26 27 23 28 25 29 24 30 27 31 29 32 28 33 30 34
REMARK SMILES IDX 31 35
REMARK H PARENT 32 18 31 36
ROOT
ATOM      1  C   UNL     1       7.242 -10.722 -44.951  1.00  0.00     0.119 A 
ATOM      2  C   UNL     1       7.684 -11.450 -43.849  1.00  0.00     0.047 A 
ATOM      3  C   UNL     1       6.968 -12.575 -43.418  1.00  0.00     0.016 A 
ATOM      4  C   UNL     1       5.801 -12.994 -44.075  1.00  0.00     0.017 A 
ATOM      5  C   UNL     1       5.367 -12.256 -45.183  1.00  0.00     0.016 A 
ATOM      6  C   UNL     1       6.083 -11.131 -45.612  1.00  0.00     0.047 A 
ENDROOT
BRANCH   1   7
ATOM      7  O   UNL     1       7.837  -9.610 -45.475  1.00  0.00    -0.492 OA
BRANCH   7   8
ATOM      8  C   UNL     1       7.005  -8.466 -45.692  1.00  0.00     0.245 C 
BRANCH   8   9
ATOM      9  C   UNL     1       7.283  -7.416 -44.597  1.00  0.00     0.125 C 
BRANCH   9  10
ATOM     10  N   UNL     1       6.116  -7.074 -43.753  1.00  0.00    -0.306 NA
ATOM     11  C   UNL     1       4.862  -7.117 -44.508  1.00  0.00     0.105 C 
ATOM     12  C   UNL     1       6.040  -7.992 -42.614  1.00  0.00     0.105 C 
ENDBRANCH   9  10
ENDBRANCH   8   9
ENDBRANCH   7   8
ENDBRANCH   1   7
BRANCH   4  13
ATOM     13  C   UNL     1       5.091 -14.179 -43.580  1.00  0.00     0.138 A 
ATOM     14  N   UNL     1       5.651 -15.258 -43.067  1.00  0.00    -0.228 NA
ATOM     15  N   UNL     1       3.725 -14.334 -43.582  1.00  0.00    -0.337 N 
ATOM     16  C   UNL     1       4.629 -16.117 -42.727  1.00  0.00     0.097 A 
ATOM     17  C   UNL     1       3.400 -15.566 -43.057  1.00  0.00     0.074 A 
ATOM     18  H   UNL     1       3.061 -13.670 -43.947  1.00  0.00     0.168 HD
BRANCH  16  19
ATOM     19  C   UNL     1       4.894 -17.414 -42.126  1.00  0.00     0.005 A 
ATOM     20  C   UNL     1       5.068 -18.568 -42.891  1.00  0.00     0.030 A 
ATOM     21  C   UNL     1       4.946 -17.519 -40.735  1.00  0.00     0.030 A 
ATOM     22  C   UNL     1       5.313 -19.763 -42.235  1.00  0.00     0.111 A 
ATOM     23  C   UNL     1       5.196 -18.760 -40.173  1.00  0.00     0.111 A 
ATOM     24  N   UNL     1       5.388 -19.885 -40.893  1.00  0.00    -0.265 NA
ENDBRANCH  16  19
BRANCH  17  25
ATOM     25  C   UNL     1       2.025 -16.045 -43.004  1.00  0.00     0.001 A 
ATOM     26  C   UNL     1       1.007 -15.347 -43.686  1.00  0.00     0.011 A 
ATOM     27  C   UNL     1       1.709 -17.200 -42.265  1.00  0.00     0.014 A 
ATOM     28  C   UNL     1      -0.317 -15.788 -43.645  1.00  0.00     0.011 A 
ATOM     29  C   UNL     1       0.391 -17.633 -42.227  1.00  0.00    -0.038 A 
ATOM     30  C   UNL     1      -0.591 -16.927 -42.911  1.00  0.00     0.003 A 
ATOM     31  C   UNL     1      -0.152 -18.831 -41.516  1.00  0.00     0.043 C 
ATOM     32  C   UNL     1      -1.863 -17.597 -42.702  1.00  0.00     0.087 C 
ATOM     33  C   UNL     1      -1.658 -18.809 -41.824  1.00  0.00     0.065 C 
ATOM     34  N   UNL     1      -2.978 -17.181 -43.211  1.00  0.00    -0.093 NA
BRANCH  34  35
ATOM     35  O   UNL     1      -4.031 -18.023 -42.840  1.00  0.00    -0.411 OA
ATOM     36  H   UNL     1      -4.795 -17.610 -43.285  1.00  0.00     0.330 HD
ENDBRANCH  34  35
ENDBRANCH  17  25
ENDBRANCH   4  13
TORSDOF 8
ENDMDL
MODEL 13
REMARK minimizedAffinity -7.49800205
REMARK minimizedRMSD -1
REMARK SMILES CN(C)CCOc1ccc(-c2nc(-c3ccncc3)c(-c3ccc4c(c3)CC/C4=N\O)[nH]2)cc1
REMARK SMILES IDX 7 1 8 2 9 3 10 4 33 5 34 6 6 7 5 8 4 9 2 10 1 11 3 12 11 13
REMARK SMILES IDX 12 14 32 15 13 16 20 17 14 19 15 20 19 21 16 22 18 23 17 24
REMARK SMILES IDX 21 25 22 26 26 27 23 28 25 29 24 30 27 31 29 32 28 33 30 34
REMARK SMILES IDX 31 35
REMARK H PARENT 32 18 31 36
ROOT
ATOM      1  C   UNL     1      -0.101 -12.487 -45.779  1.00  0.00     0.119 A 
ATOM      2  C   UNL     1       0.292 -12.264 -44.462  1.00  0.00     0.047 A 
ATOM      3  C   UNL     1       1.326 -13.025 -43.900  1.00  0.00     0.016 A 
ATOM      4  C   UNL     1       1.986 -14.019 -44.638  1.00  0.00     0.017 A 
ATOM      5  C   UNL     1       1.584 -14.233 -45.962  1.00  0.00     0.016 A 
ATOM      6  C   UNL     1       0.550 -13.473 -46.522  1.00  0.00     0.047 A 
ENDROOT
BRANCH   1   7
ATOM      7  O   UNL     1      -1.090 -11.825 -46.450  1.00  0.00    -0.492 OA
BRANCH   7   8
ATOM      8  C   UNL     1      -1.350 -10.473 -46.059  1.00  0.00     0.245 C 
BRANCH   8   9
ATOM      9  C   UNL     1      -2.824 -10.339 -45.628  1.00  0.00     0.125 C 
BRANCH   9  10
ATOM     10  N   UNL     1      -3.064 -10.492 -44.175  1.00  0.00    -0.306 NA
ATOM     11  C   UNL     1      -2.150  -9.669 -43.380  1.00  0.00     0.105 C 
ATOM     12  C   UNL     1      -4.451 -10.139 -43.860  1.00  0.00     0.105 C 
ENDBRANCH   9  10
ENDBRANCH   8   9
ENDBRANCH   7   8
ENDBRANCH   1   7
BRANCH   4  13
ATOM     13  C   UNL     1       3.061 -14.786 -43.997  1.00  0.00     0.138 A 
ATOM     14  N   UNL     1       2.928 -15.957 -43.405  1.00  0.00    -0.228 NA
ATOM     15  N   UNL     1       4.373 -14.385 -43.921  1.00  0.00    -0.337 N 
ATOM     16  C   UNL     1       4.177 -16.319 -42.948  1.00  0.00     0.097 A 
ATOM     17  C   UNL     1       5.107 -15.335 -43.245  1.00  0.00     0.074 A 
ATOM     18  H   UNL     1       4.741 -13.513 -44.269  1.00  0.00     0.168 HD
BRANCH  16  19
ATOM     19  C   UNL     1       4.395 -17.571 -42.242  1.00  0.00     0.005 A 
ATOM     20  C   UNL     1       5.359 -18.496 -42.645  1.00  0.00     0.030 A 
ATOM     21  C   UNL     1       3.593 -17.877 -41.141  1.00  0.00     0.030 A 
ATOM     22  C   UNL     1       5.497 -19.665 -41.915  1.00  0.00     0.111 A 
ATOM     23  C   UNL     1       3.806 -19.074 -40.478  1.00  0.00     0.111 A 
ATOM     24  N   UNL     1       4.746 -19.973 -40.836  1.00  0.00    -0.265 NA
ENDBRANCH  16  19
BRANCH  17  25
ATOM     25  C   UNL     1       6.520 -15.148 -42.940  1.00  0.00     0.001 A 
ATOM     26  C   UNL     1       6.937 -14.974 -41.604  1.00  0.00     0.011 A 
ATOM     27  C   UNL     1       7.469 -15.134 -43.978  1.00  0.00     0.014 A 
ATOM     28  C   UNL     1       8.285 -14.791 -41.291  1.00  0.00     0.011 A 
ATOM     29  C   UNL     1       8.807 -14.950 -43.661  1.00  0.00    -0.038 A 
ATOM     30  C   UNL     1       9.190 -14.784 -42.336  1.00  0.00     0.003 A 
ATOM     31  C   UNL     1       9.969 -14.914 -44.603  1.00  0.00     0.043 C 
ATOM     32  C   UNL     1      10.633 -14.616 -42.295  1.00  0.00     0.087 C 
ATOM     33  C   UNL     1      11.189 -14.684 -43.698  1.00  0.00     0.065 C 
ATOM     34  N   UNL     1      11.297 -14.438 -41.199  1.00  0.00    -0.093 NA
BRANCH  34  35
ATOM     35  O   UNL     1      12.663 -14.308 -41.470  1.00  0.00    -0.411 OA
ATOM     36  H   UNL     1      13.042 -14.187 -40.579  1.00  0.00     0.330 HD
ENDBRANCH  34  35
ENDBRANCH  17  25
ENDBRANCH   4  13
TORSDOF 8
ENDMDL
MODEL 14
REMARK minimizedAffinity -7.48227644
REMARK minimizedRMSD -1
REMARK SMILES CN(C)CCOc1ccc(-c2nc(-c3ccncc3)c(-c3ccc4c(c3)CC/C4=N\O)[nH]2)cc1
REMARK SMILES IDX 7 1 8 2 9 3 10 4 33 5 34 6 6 7 5 8 4 9 2 10 1 11 3 12 11 13
REMARK SMILES IDX 12 14 32 15 13 16 20 17 14 19 15 20 19 21 16 22 18 23 17 24
REMARK SMILES IDX 21 25 22 26 26 27 23 28 25 29 24 30 27 31 29 32 28 33 30 34
REMARK SMILES IDX 31 35
REMARK H PARENT 32 18 31 36
ROOT
ATOM      1  C   UNL     1       8.699 -13.789 -45.352  1.00  0.00     0.119 A 
ATOM      2  C   UNL     1       7.947 -14.957 -45.451  1.00  0.00     0.047 A 
ATOM      3  C   UNL     1       6.567 -14.925 -45.206  1.00  0.00     0.016 A 
ATOM      4  C   UNL     1       5.913 -13.732 -44.860  1.00  0.00     0.017 A 
ATOM      5  C   UNL     1       6.680 -12.565 -44.765  1.00  0.00     0.016 A 
ATOM      6  C   UNL     1       8.059 -12.598 -45.009  1.00  0.00     0.047 A 
ENDROOT
BRANCH   1   7
ATOM      7  O   UNL     1      10.045 -13.676 -45.560  1.00  0.00    -0.492 OA
BRANCH   7   8
ATOM      8  C   UNL     1      10.899 -14.510 -44.770  1.00  0.00     0.245 C 
BRANCH   8   9
ATOM      9  C   UNL     1      11.183 -13.820 -43.421  1.00  0.00     0.125 C 
BRANCH   9  10
ATOM     10  N   UNL     1      10.583 -14.486 -42.243  1.00  0.00    -0.306 NA
ATOM     11  C   UNL     1      11.603 -15.007 -41.331  1.00  0.00     0.105 C 
ATOM     12  C   UNL     1       9.714 -13.547 -41.529  1.00  0.00     0.105 C 
ENDBRANCH   9  10
ENDBRANCH   8   9
ENDBRANCH   7   8
ENDBRANCH   1   7
BRANCH   4  13
ATOM     13  C   UNL     1       4.467 -13.758 -44.613  1.00  0.00     0.138 A 
ATOM     14  N   UNL     1       3.645 -12.732 -44.724  1.00  0.00    -0.228 NA
ATOM     15  N   UNL     1       3.757 -14.868 -44.225  1.00  0.00    -0.337 N 
ATOM     16  C   UNL     1       2.385 -13.192 -44.411  1.00  0.00     0.097 A 
ATOM     17  C   UNL     1       2.428 -14.536 -44.073  1.00  0.00     0.074 A 
ATOM     18  H   UNL     1       4.148 -15.779 -44.038  1.00  0.00     0.168 HD
BRANCH  16  19
ATOM     19  C   UNL     1       1.227 -12.314 -44.435  1.00  0.00     0.005 A 
ATOM     20  C   UNL     1       0.811 -11.597 -43.312  1.00  0.00     0.030 A 
ATOM     21  C   UNL     1       0.484 -12.204 -45.612  1.00  0.00     0.030 A 
ATOM     22  C   UNL     1      -0.306 -10.786 -43.424  1.00  0.00     0.111 A 
ATOM     23  C   UNL     1      -0.620 -11.368 -45.623  1.00  0.00     0.111 A 
ATOM     24  N   UNL     1      -1.028 -10.649 -44.556  1.00  0.00    -0.265 NA
ENDBRANCH  16  19
BRANCH  17  25
ATOM     25  C   UNL     1       1.442 -15.494 -43.591  1.00  0.00     0.001 A 
ATOM     26  C   UNL     1       0.100 -15.403 -44.019  1.00  0.00     0.011 A 
ATOM     27  C   UNL     1       1.823 -16.507 -42.693  1.00  0.00     0.014 A 
ATOM     28  C   UNL     1      -0.861 -16.309 -43.566  1.00  0.00     0.011 A 
ATOM     29  C   UNL     1       0.863 -17.405 -42.247  1.00  0.00    -0.038 A 
ATOM     30  C   UNL     1      -0.450 -17.292 -42.686  1.00  0.00     0.003 A 
ATOM     31  C   UNL     1       1.058 -18.553 -41.307  1.00  0.00     0.043 C 
ATOM     32  C   UNL     1      -1.230 -18.351 -42.068  1.00  0.00     0.087 C 
ATOM     33  C   UNL     1      -0.337 -19.184 -41.179  1.00  0.00     0.065 C 
ATOM     34  N   UNL     1      -2.497 -18.515 -42.277  1.00  0.00    -0.093 NA
BRANCH  34  35
ATOM     35  O   UNL     1      -2.975 -19.610 -41.550  1.00  0.00    -0.411 OA
ATOM     36  H   UNL     1      -3.919 -19.627 -41.796  1.00  0.00     0.330 HD
ENDBRANCH  34  35
ENDBRANCH  17  25
ENDBRANCH   4  13
TORSDOF 8
ENDMDL
MODEL 15
REMARK minimizedAffinity -7.43834019
REMARK minimizedRMSD -1
REMARK SMILES CN(C)CCOc1ccc(-c2nc(-c3ccncc3)c(-c3ccc4c(c3)CC/C4=N\O)[nH]2)cc1
REMARK SMILES IDX 7 1 8 2 9 3 10 4 33 5 34 6 6 7 5 8 4 9 2 10 1 11 3 12 11 13
REMARK SMILES IDX 12 14 32 15 13 16 20 17 14 19 15 20 19 21 16 22 18 23 17 24
REMARK SMILES IDX 21 25 22 26 26 27 23 28 25 29 24 30 27 31 29 32 28 33 30 34
REMARK SMILES IDX 31 35
REMARK H PARENT 32 18 31 36
ROOT
ATOM      1  C   UNL     1      -0.594 -11.603 -46.513  1.00  0.00     0.119 A 
ATOM      2  C   UNL     1       0.031 -12.668 -47.157  1.00  0.00     0.047 A 
ATOM      3  C   UNL     1       1.183 -13.243 -46.603  1.00  0.00     0.016 A 
ATOM      4  C   UNL     1       1.731 -12.770 -45.401  1.00  0.00     0.017 A 
ATOM      5  C   UNL     1       1.092 -11.701 -44.762  1.00  0.00     0.016 A 
ATOM      6  C   UNL     1      -0.058 -11.126 -45.317  1.00  0.00     0.047 A 
ENDROOT
BRANCH   1   7
ATOM      7  O   UNL     1      -1.715 -10.949 -46.939  1.00  0.00    -0.492 OA
BRANCH   7   8
ATOM      8  C   UNL     1      -2.508 -10.297 -45.941  1.00  0.00     0.245 C 
BRANCH   8   9
ATOM      9  C   UNL     1      -2.814  -8.855 -46.390  1.00  0.00     0.125 C 
BRANCH   9  10
ATOM     10  N   UNL     1      -2.006  -7.810 -45.722  1.00  0.00    -0.306 NA
ATOM     11  C   UNL     1      -2.550  -6.469 -45.949  1.00  0.00     0.105 C 
ATOM     12  C   UNL     1      -1.937  -8.079 -44.283  1.00  0.00     0.105 C 
ENDBRANCH   9  10
ENDBRANCH   8   9
ENDBRANCH   7   8
ENDBRANCH   1   7
BRANCH   4  13
ATOM     13  C   UNL     1       2.939 -13.411 -44.868  1.00  0.00     0.138 A 
ATOM     14  N   UNL     1       4.067 -12.798 -44.560  1.00  0.00    -0.228 NA
ATOM     15  N   UNL     1       3.069 -14.755 -44.615  1.00  0.00    -0.337 N 
ATOM     16  C   UNL     1       4.932 -13.764 -44.093  1.00  0.00     0.097 A 
ATOM     17  C   UNL     1       4.333 -15.014 -44.133  1.00  0.00     0.074 A 
ATOM     18  H   UNL     1       2.364 -15.455 -44.790  1.00  0.00     0.168 HD
BRANCH  16  19
ATOM     19  C   UNL     1       6.278 -13.433 -43.658  1.00  0.00     0.005 A 
ATOM     20  C   UNL     1       7.256 -12.976 -44.543  1.00  0.00     0.030 A 
ATOM     21  C   UNL     1       6.619 -13.604 -42.315  1.00  0.00     0.030 A 
ATOM     22  C   UNL     1       8.515 -12.686 -44.042  1.00  0.00     0.111 A 
ATOM     23  C   UNL     1       7.906 -13.288 -41.911  1.00  0.00     0.111 A 
ATOM     24  N   UNL     1       8.861 -12.826 -42.745  1.00  0.00    -0.265 NA
ENDBRANCH  16  19
BRANCH  17  25
ATOM     25  C   UNL     1       4.789 -16.368 -43.848  1.00  0.00     0.001 A 
ATOM     26  C   UNL     1       4.348 -17.032 -42.684  1.00  0.00     0.011 A 
ATOM     27  C   UNL     1       5.677 -17.013 -44.728  1.00  0.00     0.014 A 
ATOM     28  C   UNL     1       4.776 -18.328 -42.391  1.00  0.00     0.011 A 
ATOM     29  C   UNL     1       6.099 -18.301 -44.431  1.00  0.00    -0.038 A 
ATOM     30  C   UNL     1       5.646 -18.932 -43.279  1.00  0.00     0.003 A 
ATOM     31  C   UNL     1       7.023 -19.163 -45.232  1.00  0.00     0.043 C 
ATOM     32  C   UNL     1       6.239 -20.257 -43.221  1.00  0.00     0.087 C 
ATOM     33  C   UNL     1       7.126 -20.467 -44.425  1.00  0.00     0.065 C 
ATOM     34  N   UNL     1       6.013 -21.096 -42.261  1.00  0.00    -0.093 NA
BRANCH  34  35
ATOM     35  O   UNL     1       6.718 -22.285 -42.474  1.00  0.00    -0.411 OA
ATOM     36  H   UNL     1       6.461 -22.820 -41.700  1.00  0.00     0.330 HD
ENDBRANCH  34  35
ENDBRANCH  17  25
ENDBRANCH   4  13
TORSDOF 8
ENDMDL
MODEL 16
REMARK minimizedAffinity -7.39751291
REMARK minimizedRMSD -1
REMARK SMILES CN(C)CCOc1ccc(-c2nc(-c3ccncc3)c(-c3ccc4c(c3)CC/C4=N\O)[nH]2)cc1
REMARK SMILES IDX 7 1 8 2 9 3 10 4 33 5 34 6 6 7 5 8 4 9 2 10 1 11 3 12 11 13
REMARK SMILES IDX 12 14 32 15 13 16 20 17 14 19 15 20 19 21 16 22 18 23 17 24
REMARK SMILES IDX 21 25 22 26 26 27 23 28 25 29 24 30 27 31 29 32 28 33 30 34
REMARK SMILES IDX 31 35
REMARK H PARENT 32 18 31 36
ROOT
ATOM      1  C   UNL     1       6.182  -7.541 -44.119  1.00  0.00     0.119 A 
ATOM      2  C   UNL     1       6.612  -8.161 -42.949  1.00  0.00     0.047 A 
ATOM      3  C   UNL     1       7.013  -9.503 -42.973  1.00  0.00     0.016 A 
ATOM      4  C   UNL     1       6.993 -10.251 -44.160  1.00  0.00     0.017 A 
ATOM      5  C   UNL     1       6.561  -9.616 -45.331  1.00  0.00     0.016 A 
ATOM      6  C   UNL     1       6.159  -8.275 -45.306  1.00  0.00     0.047 A 
ENDROOT
BRANCH   1   7
ATOM      7  O   UNL     1       5.763  -6.246 -44.240  1.00  0.00    -0.492 OA
BRANCH   7   8
ATOM      8  C   UNL     1       4.442  -6.033 -44.750  1.00  0.00     0.245 C 
BRANCH   8   9
ATOM      9  C   UNL     1       3.409  -6.412 -43.671  1.00  0.00     0.125 C 
BRANCH   9  10
ATOM     10  N   UNL     1       2.267  -7.219 -44.158  1.00  0.00    -0.306 NA
ATOM     11  C   UNL     1       1.784  -6.752 -45.460  1.00  0.00     0.105 C 
ATOM     12  C   UNL     1       2.657  -8.628 -44.250  1.00  0.00     0.105 C 
ENDBRANCH   9  10
ENDBRANCH   8   9
ENDBRANCH   7   8
ENDBRANCH   1   7
BRANCH   4  13
ATOM     13  C   UNL     1       7.423 -11.654 -44.126  1.00  0.00     0.138 A 
ATOM     14  N   UNL     1       8.515 -12.141 -44.684  1.00  0.00    -0.228 NA
ATOM     15  N   UNL     1       6.739 -12.670 -43.504  1.00  0.00    -0.337 N 
ATOM     16  C   UNL     1       8.537 -13.491 -44.407  1.00  0.00     0.097 A 
ATOM     17  C   UNL     1       7.417 -13.857 -43.677  1.00  0.00     0.074 A 
ATOM     18  H   UNL     1       5.855 -12.575 -43.027  1.00  0.00     0.168 HD
BRANCH  16  19
ATOM     19  C   UNL     1       9.617 -14.345 -44.874  1.00  0.00     0.005 A 
ATOM     20  C   UNL     1       9.548 -15.039 -46.083  1.00  0.00     0.030 A 
ATOM     21  C   UNL     1      10.751 -14.504 -44.075  1.00  0.00     0.030 A 
ATOM     22  C   UNL     1      10.623 -15.834 -46.449  1.00  0.00     0.111 A 
ATOM     23  C   UNL     1      11.772 -15.323 -44.528  1.00  0.00     0.111 A 
ATOM     24  N   UNL     1      11.736 -15.987 -45.702  1.00  0.00    -0.265 NA
ENDBRANCH  16  19
BRANCH  17  25
ATOM     25  C   UNL     1       6.890 -15.126 -43.193  1.00  0.00     0.001 A 
ATOM     26  C   UNL     1       6.461 -16.109 -44.110  1.00  0.00     0.011 A 
ATOM     27  C   UNL     1       6.801 -15.371 -41.811  1.00  0.00     0.014 A 
ATOM     28  C   UNL     1       5.950 -17.330 -43.666  1.00  0.00     0.011 A 
ATOM     29  C   UNL     1       6.293 -16.586 -41.376  1.00  0.00    -0.038 A 
ATOM     30  C   UNL     1       5.880 -17.537 -42.301  1.00  0.00     0.003 A 
ATOM     31  C   UNL     1       6.124 -17.049 -39.963  1.00  0.00     0.043 C 
ATOM     32  C   UNL     1       5.399 -18.700 -41.576  1.00  0.00     0.087 C 
ATOM     33  C   UNL     1       5.521 -18.457 -40.090  1.00  0.00     0.065 C 
ATOM     34  N   UNL     1       4.942 -19.762 -42.159  1.00  0.00    -0.093 NA
BRANCH  34  35
ATOM     35  O   UNL     1       4.554 -20.714 -41.209  1.00  0.00    -0.411 OA
ATOM     36  H   UNL     1       4.241 -21.450 -41.768  1.00  0.00     0.330 HD
ENDBRANCH  34  35
ENDBRANCH  17  25
ENDBRANCH   4  13
TORSDOF 8
ENDMDL
MODEL 17
REMARK minimizedAffinity -7.29964018
REMARK minimizedRMSD -1
REMARK SMILES CN(C)CCOc1ccc(-c2nc(-c3ccncc3)c(-c3ccc4c(c3)CC/C4=N\O)[nH]2)cc1
REMARK SMILES IDX 7 1 8 2 9 3 10 4 33 5 34 6 6 7 5 8 4 9 2 10 1 11 3 12 11 13
REMARK SMILES IDX 12 14 32 15 13 16 20 17 14 19 15 20 19 21 16 22 18 23 17 24
REMARK SMILES IDX 21 25 22 26 26 27 23 28 25 29 24 30 27 31 29 32 28 33 30 34
REMARK SMILES IDX 31 35
REMARK H PARENT 32 18 31 36
ROOT
ATOM      1  C   UNL     1       6.329  -7.737 -44.007  1.00  0.00     0.119 A 
ATOM      2  C   UNL     1       6.733  -8.404 -42.854  1.00  0.00     0.047 A 
ATOM      3  C   UNL     1       7.170  -9.733 -42.930  1.00  0.00     0.016 A 
ATOM      4  C   UNL     1       7.212 -10.421 -44.153  1.00  0.00     0.017 A 
ATOM      5  C   UNL     1       6.804  -9.738 -45.306  1.00  0.00     0.016 A 
ATOM      6  C   UNL     1       6.367  -8.410 -45.229  1.00  0.00     0.047 A 
ENDROOT
BRANCH   1   7
ATOM      7  O   UNL     1       5.880  -6.448 -44.079  1.00  0.00    -0.492 OA
BRANCH   7   8
ATOM      8  C   UNL     1       4.579  -6.241 -44.637  1.00  0.00     0.245 C 
BRANCH   8   9
ATOM      9  C   UNL     1       3.509  -6.561 -43.575  1.00  0.00     0.125 C 
BRANCH   9  10
ATOM     10  N   UNL     1       2.347  -7.332 -44.075  1.00  0.00    -0.306 NA
ATOM     11  C   UNL     1       1.769  -6.733 -45.280  1.00  0.00     0.105 C 
ATOM     12  C   UNL     1       2.750  -8.713 -44.353  1.00  0.00     0.105 C 
ENDBRANCH   9  10
ENDBRANCH   8   9
ENDBRANCH   7   8
ENDBRANCH   1   7
BRANCH   4  13
ATOM     13  C   UNL     1       7.677 -11.812 -44.173  1.00  0.00     0.138 A 
ATOM     14  N   UNL     1       8.799 -12.245 -44.717  1.00  0.00    -0.228 NA
ATOM     15  N   UNL     1       7.000 -12.874 -43.624  1.00  0.00    -0.337 N 
ATOM     16  C   UNL     1       8.848 -13.606 -44.506  1.00  0.00     0.097 A 
ATOM     17  C   UNL     1       7.714 -14.034 -43.833  1.00  0.00     0.074 A 
ATOM     18  H   UNL     1       6.100 -12.825 -43.173  1.00  0.00     0.168 HD
BRANCH  16  19
ATOM     19  C   UNL     1       9.963 -14.408 -44.978  1.00  0.00     0.005 A 
ATOM     20  C   UNL     1      11.078 -14.676 -44.182  1.00  0.00     0.030 A 
ATOM     21  C   UNL     1       9.938 -14.906 -46.282  1.00  0.00     0.030 A 
ATOM     22  C   UNL     1      12.098 -15.449 -44.714  1.00  0.00     0.111 A 
ATOM     23  C   UNL     1      11.008 -15.666 -46.723  1.00  0.00     0.111 A 
ATOM     24  N   UNL     1      12.086 -15.956 -45.965  1.00  0.00    -0.265 NA
ENDBRANCH  16  19
BRANCH  17  25
ATOM     25  C   UNL     1       7.205 -15.338 -43.429  1.00  0.00     0.001 A 
ATOM     26  C   UNL     1       7.067 -15.649 -42.060  1.00  0.00     0.011 A 
ATOM     27  C   UNL     1       6.859 -16.293 -44.402  1.00  0.00     0.014 A 
ATOM     28  C   UNL     1       6.584 -16.894 -41.652  1.00  0.00     0.011 A 
ATOM     29  C   UNL     1       6.381 -17.529 -43.991  1.00  0.00    -0.038 A 
ATOM     30  C   UNL     1       6.252 -17.807 -42.636  1.00  0.00     0.003 A 
ATOM     31  C   UNL     1       5.949 -18.671 -44.855  1.00  0.00     0.043 C 
ATOM     32  C   UNL     1       5.733 -19.156 -42.494  1.00  0.00     0.087 C 
ATOM     33  C   UNL     1       5.522 -19.763 -43.861  1.00  0.00     0.065 C 
ATOM     34  N   UNL     1       5.502 -19.713 -41.349  1.00  0.00    -0.093 NA
BRANCH  34  35
ATOM     35  O   UNL     1       5.007 -21.009 -41.524  1.00  0.00    -0.411 OA
ATOM     36  H   UNL     1       4.873 -21.307 -40.605  1.00  0.00     0.330 HD
ENDBRANCH  34  35
ENDBRANCH  17  25
ENDBRANCH   4  13
TORSDOF 8
ENDMDL
MODEL 18
REMARK minimizedAffinity -7.29814291
REMARK minimizedRMSD -1
REMARK SMILES CN(C)CCOc1ccc(-c2nc(-c3ccncc3)c(-c3ccc4c(c3)CC/C4=N\O)[nH]2)cc1
REMARK SMILES IDX 7 1 8 2 9 3 10 4 33 5 34 6 6 7 5 8 4 9 2 10 1 11 3 12 11 13
REMARK SMILES IDX 12 14 32 15 13 16 20 17 14 19 15 20 19 21 16 22 18 23 17 24
REMARK SMILES IDX 21 25 22 26 26 27 23 28 25 29 24 30 27 31 29 32 28 33 30 34
REMARK SMILES IDX 31 35
REMARK H PARENT 32 18 31 36
ROOT
ATOM      1  C   UNL     1       8.729 -13.594 -45.118  1.00  0.00     0.119 A 
ATOM      2  C   UNL     1       8.018 -14.787 -45.224  1.00  0.00     0.047 A 
ATOM      3  C   UNL     1       6.630 -14.796 -45.029  1.00  0.00     0.016 A 
ATOM      4  C   UNL     1       5.927 -13.621 -44.724  1.00  0.00     0.017 A 
ATOM      5  C   UNL     1       6.652 -12.427 -44.622  1.00  0.00     0.016 A 
ATOM      6  C   UNL     1       8.038 -12.419 -44.817  1.00  0.00     0.047 A 
ENDROOT
BRANCH   1   7
ATOM      7  O   UNL     1      10.076 -13.439 -45.280  1.00  0.00    -0.492 OA
BRANCH   7   8
ATOM      8  C   UNL     1      10.924 -14.016 -44.281  1.00  0.00     0.245 C 
BRANCH   8   9
ATOM      9  C   UNL     1      11.991 -14.896 -44.960  1.00  0.00     0.125 C 
BRANCH   9  10
ATOM     10  N   UNL     1      11.611 -15.419 -46.292  1.00  0.00    -0.306 NA
ATOM     11  C   UNL     1      12.737 -15.403 -47.229  1.00  0.00     0.105 C 
ATOM     12  C   UNL     1      11.094 -16.784 -46.161  1.00  0.00     0.105 C 
ENDBRANCH   9  10
ENDBRANCH   8   9
ENDBRANCH   7   8
ENDBRANCH   1   7
BRANCH   4  13
ATOM     13  C   UNL     1       4.474 -13.690 -44.529  1.00  0.00     0.138 A 
ATOM     14  N   UNL     1       3.621 -12.701 -44.713  1.00  0.00    -0.228 NA
ATOM     15  N   UNL     1       3.790 -14.809 -44.118  1.00  0.00    -0.337 N 
ATOM     16  C   UNL     1       2.367 -13.195 -44.425  1.00  0.00     0.097 A 
ATOM     17  C   UNL     1       2.446 -14.520 -44.028  1.00  0.00     0.074 A 
ATOM     18  H   UNL     1       4.206 -15.696 -43.878  1.00  0.00     0.168 HD
BRANCH  16  19
ATOM     19  C   UNL     1       1.180 -12.362 -44.529  1.00  0.00     0.005 A 
ATOM     20  C   UNL     1       0.418 -12.293 -45.696  1.00  0.00     0.030 A 
ATOM     21  C   UNL     1       0.802 -11.580 -43.436  1.00  0.00     0.030 A 
ATOM     22  C   UNL     1      -0.697 -11.470 -45.708  1.00  0.00     0.111 A 
ATOM     23  C   UNL     1      -0.328 -10.788 -43.547  1.00  0.00     0.111 A 
ATOM     24  N   UNL     1      -1.092 -10.720 -44.657  1.00  0.00    -0.265 NA
ENDBRANCH  16  19
BRANCH  17  25
ATOM     25  C   UNL     1       1.477 -15.494 -43.540  1.00  0.00     0.001 A 
ATOM     26  C   UNL     1       1.837 -16.398 -42.519  1.00  0.00     0.011 A 
ATOM     27  C   UNL     1       0.184 -15.538 -44.092  1.00  0.00     0.014 A 
ATOM     28  C   UNL     1       0.924 -17.340 -42.040  1.00  0.00     0.011 A 
ATOM     29  C   UNL     1      -0.719 -16.477 -43.612  1.00  0.00    -0.038 A 
ATOM     30  C   UNL     1      -0.337 -17.354 -42.604  1.00  0.00     0.003 A 
ATOM     31  C   UNL     1      -2.134 -16.685 -44.049  1.00  0.00     0.043 C 
ATOM     32  C   UNL     1      -1.466 -18.216 -42.298  1.00  0.00     0.087 C 
ATOM     33  C   UNL     1      -2.636 -17.849 -43.180  1.00  0.00     0.065 C 
ATOM     34  N   UNL     1      -1.428 -19.145 -41.398  1.00  0.00    -0.093 NA
BRANCH  34  35
ATOM     35  O   UNL     1      -2.657 -19.809 -41.326  1.00  0.00    -0.411 OA
ATOM     36  H   UNL     1      -2.499 -20.465 -40.621  1.00  0.00     0.330 HD
ENDBRANCH  34  35
ENDBRANCH  17  25
ENDBRANCH   4  13
TORSDOF 8
ENDMDL
MODEL 19
REMARK minimizedAffinity -7.17536354
REMARK minimizedRMSD -1
REMARK SMILES CN(C)CCOc1ccc(-c2nc(-c3ccncc3)c(-c3ccc4c(c3)CC/C4=N\O)[nH]2)cc1
REMARK SMILES IDX 7 1 8 2 9 3 10 4 33 5 34 6 6 7 5 8 4 9 2 10 1 11 3 12 11 13
REMARK SMILES IDX 12 14 32 15 13 16 20 17 14 19 15 20 19 21 16 22 18 23 17 24
REMARK SMILES IDX 21 25 22 26 26 27 23 28 25 29 24 30 27 31 29 32 28 33 30 34
REMARK SMILES IDX 31 35
REMARK H PARENT 32 18 31 36
ROOT
ATOM      1  C   UNL     1       4.667 -15.845 -45.977  1.00  0.00     0.119 A 
ATOM      2  C   UNL     1       3.299 -15.602 -45.887  1.00  0.00     0.047 A 
ATOM      3  C   UNL     1       2.832 -14.298 -45.669  1.00  0.00     0.016 A 
ATOM      4  C   UNL     1       3.717 -13.217 -45.537  1.00  0.00     0.017 A 
ATOM      5  C   UNL     1       5.090 -13.474 -45.631  1.00  0.00     0.016 A 
ATOM      6  C   UNL     1       5.555 -14.777 -45.848  1.00  0.00     0.047 A 
ENDROOT
BRANCH   1   7
ATOM      7  O   UNL     1       5.259 -17.059 -46.184  1.00  0.00    -0.492 OA
BRANCH   7   8
ATOM      8  C   UNL     1       6.293 -17.444 -45.272  1.00  0.00     0.245 C 
BRANCH   8   9
ATOM      9  C   UNL     1       5.660 -17.926 -43.952  1.00  0.00     0.125 C 
BRANCH   9  10
ATOM     10  N   UNL     1       6.164 -17.248 -42.736  1.00  0.00    -0.306 NA
ATOM     11  C   UNL     1       7.476 -16.633 -42.956  1.00  0.00     0.105 C 
ATOM     12  C   UNL     1       5.206 -16.228 -42.301  1.00  0.00     0.105 C 
ENDBRANCH   9  10
ENDBRANCH   8   9
ENDBRANCH   7   8
ENDBRANCH   1   7
BRANCH   4  13
ATOM     13  C   UNL     1       3.171 -11.874 -45.309  1.00  0.00     0.138 A 
ATOM     14  N   UNL     1       3.873 -10.760 -45.212  1.00  0.00    -0.228 NA
ATOM     15  N   UNL     1       1.836 -11.584 -45.159  1.00  0.00    -0.337 N 
ATOM     16  C   UNL     1       2.973  -9.737 -45.006  1.00  0.00     0.097 A 
ATOM     17  C   UNL     1       1.679 -10.231 -44.949  1.00  0.00     0.074 A 
ATOM     18  H   UNL     1       1.086 -12.258 -45.160  1.00  0.00     0.168 HD
BRANCH  16  19
ATOM     19  C   UNL     1       3.411  -8.359 -44.857  1.00  0.00     0.005 A 
ATOM     20  C   UNL     1       3.853  -7.596 -45.938  1.00  0.00     0.030 A 
ATOM     21  C   UNL     1       3.419  -7.784 -43.585  1.00  0.00     0.030 A 
ATOM     22  C   UNL     1       4.255  -6.291 -45.704  1.00  0.00     0.111 A 
ATOM     23  C   UNL     1       3.842  -6.472 -43.453  1.00  0.00     0.111 A 
ATOM     24  N   UNL     1       4.254  -5.709 -44.487  1.00  0.00    -0.265 NA
ENDBRANCH  16  19
BRANCH  17  25
ATOM     25  C   UNL     1       0.376  -9.637 -44.678  1.00  0.00     0.001 A 
ATOM     26  C   UNL     1      -0.413 -10.122 -43.615  1.00  0.00     0.011 A 
ATOM     27  C   UNL     1      -0.099  -8.584 -45.481  1.00  0.00     0.014 A 
ATOM     28  C   UNL     1      -1.666  -9.568 -43.340  1.00  0.00     0.011 A 
ATOM     29  C   UNL     1      -1.344  -8.038 -45.203  1.00  0.00    -0.038 A 
ATOM     30  C   UNL     1      -2.100  -8.534 -44.148  1.00  0.00     0.003 A 
ATOM     31  C   UNL     1      -2.026  -6.916 -45.920  1.00  0.00     0.043 C 
ATOM     32  C   UNL     1      -3.344  -7.786 -44.086  1.00  0.00     0.087 C 
ATOM     33  C   UNL     1      -3.364  -6.747 -45.183  1.00  0.00     0.065 C 
ATOM     34  N   UNL     1      -4.266  -8.011 -43.207  1.00  0.00    -0.093 NA
BRANCH  34  35
ATOM     35  O   UNL     1      -5.344  -7.139 -43.392  1.00  0.00    -0.411 OA
ATOM     36  H   UNL     1      -5.952  -7.405 -42.677  1.00  0.00     0.330 HD
ENDBRANCH  34  35
ENDBRANCH  17  25
ENDBRANCH   4  13
TORSDOF 8
ENDMDL
MODEL 20
REMARK minimizedAffinity -7.16454506
REMARK minimizedRMSD -1
REMARK SMILES CN(C)CCOc1ccc(-c2nc(-c3ccncc3)c(-c3ccc4c(c3)CC/C4=N\O)[nH]2)cc1
REMARK SMILES IDX 7 1 8 2 9 3 10 4 33 5 34 6 6 7 5 8 4 9 2 10 1 11 3 12 11 13
REMARK SMILES IDX 12 14 32 15 13 16 20 17 14 19 15 20 19 21 16 22 18 23 17 24
REMARK SMILES IDX 21 25 22 26 26 27 23 28 25 29 24 30 27 31 29 32 28 33 30 34
REMARK SMILES IDX 31 35
REMARK H PARENT 32 18 31 36
ROOT
ATOM      1  C   UNL     1      -2.108 -18.948 -42.297  1.00  0.00     0.119 A 
ATOM      2  C   UNL     1      -2.524 -17.852 -43.048  1.00  0.00     0.047 A 
ATOM      3  C   UNL     1      -1.612 -16.840 -43.376  1.00  0.00     0.016 A 
ATOM      4  C   UNL     1      -0.272 -16.901 -42.964  1.00  0.00     0.017 A 
ATOM      5  C   UNL     1       0.135 -18.009 -42.211  1.00  0.00     0.016 A 
ATOM      6  C   UNL     1      -0.777 -19.020 -41.883  1.00  0.00     0.047 A 
ENDROOT
BRANCH   1   7
ATOM      7  O   UNL     1      -2.886 -20.001 -41.906  1.00  0.00    -0.492 OA
BRANCH   7   8
ATOM      8  C   UNL     1      -4.297 -19.881 -42.112  1.00  0.00     0.245 C 
BRANCH   8   9
ATOM      9  C   UNL     1      -5.031 -20.103 -40.775  1.00  0.00     0.125 C 
BRANCH   9  10
ATOM     10  N   UNL     1      -5.963 -19.018 -40.389  1.00  0.00    -0.306 NA
ATOM     11  C   UNL     1      -5.816 -18.646 -38.980  1.00  0.00     0.105 C 
ATOM     12  C   UNL     1      -5.739 -17.845 -41.237  1.00  0.00     0.105 C 
ENDBRANCH   9  10
ENDBRANCH   8   9
ENDBRANCH   7   8
ENDBRANCH   1   7
BRANCH   4  13
ATOM     13  C   UNL     1       0.638 -15.811 -43.336  1.00  0.00     0.138 A 
ATOM     14  N   UNL     1       0.299 -14.550 -43.521  1.00  0.00    -0.228 NA
ATOM     15  N   UNL     1       1.988 -15.954 -43.549  1.00  0.00    -0.337 N 
ATOM     16  C   UNL     1       1.451 -13.870 -43.849  1.00  0.00     0.097 A 
ATOM     17  C   UNL     1       2.532 -14.736 -43.892  1.00  0.00     0.074 A 
ATOM     18  H   UNL     1       2.500 -16.822 -43.502  1.00  0.00     0.168 HD
BRANCH  16  19
ATOM     19  C   UNL     1       1.440 -12.442 -44.120  1.00  0.00     0.005 A 
ATOM     20  C   UNL     1       0.765 -11.534 -43.302  1.00  0.00     0.030 A 
ATOM     21  C   UNL     1       2.099 -11.960 -45.252  1.00  0.00     0.030 A 
ATOM     22  C   UNL     1       0.805 -10.189 -43.637  1.00  0.00     0.111 A 
ATOM     23  C   UNL     1       2.079 -10.598 -45.503  1.00  0.00     0.111 A 
ATOM     24  N   UNL     1       1.452  -9.700 -44.715  1.00  0.00    -0.265 NA
ENDBRANCH  16  19
BRANCH  17  25
ATOM     25  C   UNL     1       3.936 -14.591 -44.254  1.00  0.00     0.001 A 
ATOM     26  C   UNL     1       4.379 -14.983 -45.535  1.00  0.00     0.011 A 
ATOM     27  C   UNL     1       4.853 -14.068 -43.325  1.00  0.00     0.014 A 
ATOM     28  C   UNL     1       5.721 -14.855 -45.900  1.00  0.00     0.011 A 
ATOM     29  C   UNL     1       6.185 -13.944 -43.694  1.00  0.00    -0.038 A 
ATOM     30  C   UNL     1       6.594 -14.335 -44.963  1.00  0.00     0.003 A 
ATOM     31  C   UNL     1       7.311 -13.406 -42.869  1.00  0.00     0.043 C 
ATOM     32  C   UNL     1       8.022 -14.095 -45.077  1.00  0.00     0.087 C 
ATOM     33  C   UNL     1       8.541 -13.511 -43.784  1.00  0.00     0.065 C 
ATOM     34  N   UNL     1       8.704 -14.358 -46.145  1.00  0.00    -0.093 NA
BRANCH  34  35
ATOM     35  O   UNL     1      10.050 -14.024 -45.962  1.00  0.00    -0.411 OA
ATOM     36  H   UNL     1      10.443 -14.261 -46.823  1.00  0.00     0.330 HD
ENDBRANCH  34  35
ENDBRANCH  17  25
ENDBRANCH   4  13
TORSDOF 8
ENDMDL
