MODEL 1
REMARK minimizedAffinity -9.77140617
REMARK minimizedRMSD -1
REMARK SMILES CNC(=O)c1cc(Oc2ccc(NC(=O)Nc3ccc(Cl)c(C(F)(F)F)c3)cc2)ccn1
REMARK SMILES IDX 9 1 10 2 11 3 12 4 28 5 29 6 8 7 7 8 5 9 6 10 32 11 31 12
REMARK SMILES IDX 30 13 3 14 2 15 4 16 1 17 13 19 14 20 15 21 16 22 17 25
REMARK SMILES IDX 18 26 27 27 19 28 22 29 20 30 21 31 23 32 24 33 25 34 26 35
REMARK H PARENT 2 18 13 23 16 24
ROOT
ATOM      1  C   UNL     1       0.200 -10.007 -45.097  1.00  0.00     0.127 A 
ATOM      2  C   UNL     1       0.678 -10.005 -43.789  1.00  0.00     0.049 A 
ATOM      3  C   UNL     1       0.844 -11.217 -43.116  1.00  0.00     0.030 A 
ATOM      4  C   UNL     1       0.522 -12.434 -43.737  1.00  0.00     0.043 A 
ATOM      5  C   UNL     1       0.014 -12.412 -45.039  1.00  0.00     0.030 A 
ATOM      6  C   UNL     1      -0.155 -11.200 -45.717  1.00  0.00     0.049 A 
ENDROOT
BRANCH   1   7
ATOM      7  O   UNL     1       0.007  -8.827 -45.767  1.00  0.00    -0.457 OA
BRANCH   7   8
ATOM      8  C   UNL     1      -0.600  -7.790 -45.091  1.00  0.00     0.131 A 
ATOM      9  C   UNL     1      -2.527  -7.072 -43.890  1.00  0.00     0.131 A 
ATOM     10  C   UNL     1      -1.855  -8.080 -44.565  1.00  0.00     0.081 A 
ATOM     11  N   UNL     1      -2.032  -5.813 -43.711  1.00  0.00    -0.251 NA
ATOM     12  C   UNL     1      -0.818  -5.568 -44.243  1.00  0.00     0.116 A 
ATOM     13  C   UNL     1      -0.072  -6.508 -44.937  1.00  0.00     0.067 A 
BRANCH   9  14
ATOM     14  C   UNL     1      -3.891  -7.334 -43.328  1.00  0.00     0.269 C 
ATOM     15  N   UNL     1      -4.105  -8.641 -42.945  1.00  0.00    -0.354 N 
ATOM     16  O   UNL     1      -4.719  -6.438 -43.214  1.00  0.00    -0.268 OA
ATOM     17  C   UNL     1      -5.292  -9.053 -42.245  1.00  0.00     0.143 C 
ATOM     18  H   UNL     1      -3.296  -9.255 -42.992  1.00  0.00     0.163 HD
ENDBRANCH   9  14
ENDBRANCH   7   8
ENDBRANCH   1   7
BRANCH   4  19
ATOM     19  N   UNL     1       0.732 -13.612 -42.988  1.00  0.00    -0.308 N 
ATOM     20  C   UNL     1       0.164 -14.862 -43.198  1.00  0.00     0.323 C 
ATOM     21  O   UNL     1      -0.619 -15.133 -44.099  1.00  0.00    -0.248 OA
ATOM     22  N   UNL     1       0.615 -15.768 -42.245  1.00  0.00    -0.308 N 
ATOM     23  H   UNL     1       1.404 -13.539 -42.242  1.00  0.00     0.171 HD
ATOM     24  H   UNL     1       1.234 -15.404 -41.538  1.00  0.00     0.171 HD
BRANCH  22  25
ATOM     25  C   UNL     1       0.289 -17.137 -42.137  1.00  0.00     0.043 A 
ATOM     26  C   UNL     1      -0.925 -17.690 -42.540  1.00  0.00     0.028 A 
ATOM     27  C   UNL     1       1.262 -17.984 -41.590  1.00  0.00     0.040 A 
ATOM     28  C   UNL     1      -1.162 -19.060 -42.400  1.00  0.00     0.023 A 
ATOM     29  C   UNL     1       1.040 -19.372 -41.446  1.00  0.00     0.076 A 
ATOM     30  C   UNL     1      -0.186 -19.898 -41.859  1.00  0.00     0.053 A 
ATOM     31  Cl  UNL     1      -0.553 -21.578 -41.741  1.00  0.00    -0.084 Cl
BRANCH  29  32
ATOM     32  C   UNL     1       2.126 -20.251 -40.886  1.00  0.00     0.417 C 
ATOM     33  F   UNL     1       3.209 -19.539 -40.452  1.00  0.00    -0.166 F 
ATOM     34  F   UNL     1       1.732 -20.990 -39.813  1.00  0.00    -0.166 F 
ATOM     35  F   UNL     1       2.619 -21.127 -41.806  1.00  0.00    -0.166 F 
ENDBRANCH  29  32
ENDBRANCH  22  25
ENDBRANCH   4  19
TORSDOF 6
ENDMDL
MODEL 2
REMARK minimizedAffinity -9.58433914
REMARK minimizedRMSD -1
REMARK SMILES CNC(=O)c1cc(Oc2ccc(NC(=O)Nc3ccc(Cl)c(C(F)(F)F)c3)cc2)ccn1
REMARK SMILES IDX 9 1 10 2 11 3 12 4 28 5 29 6 8 7 7 8 5 9 6 10 32 11 31 12
REMARK SMILES IDX 30 13 3 14 2 15 4 16 1 17 13 19 14 20 15 21 16 22 17 25
REMARK SMILES IDX 18 26 27 27 19 28 22 29 20 30 21 31 23 32 24 33 25 34 26 35
REMARK H PARENT 2 18 13 23 16 24
ROOT
ATOM      1  C   UNL     1       0.370 -11.307 -44.973  1.00  0.00     0.127 A 
ATOM      2  C   UNL     1       0.684 -11.408 -43.620  1.00  0.00     0.049 A 
ATOM      3  C   UNL     1       0.761 -12.669 -43.024  1.00  0.00     0.030 A 
ATOM      4  C   UNL     1       0.514 -13.832 -43.769  1.00  0.00     0.043 A 
ATOM      5  C   UNL     1       0.169 -13.707 -45.119  1.00  0.00     0.030 A 
ATOM      6  C   UNL     1       0.090 -12.447 -45.719  1.00  0.00     0.049 A 
ENDROOT
BRANCH   1   7
ATOM      7  O   UNL     1       0.266 -10.078 -45.572  1.00  0.00    -0.457 OA
BRANCH   7   8
ATOM      8  C   UNL     1      -0.657  -9.188 -45.065  1.00  0.00     0.131 A 
ATOM      9  C   UNL     1      -2.902  -8.865 -44.342  1.00  0.00     0.131 A 
ATOM     10  C   UNL     1      -1.922  -9.715 -44.832  1.00  0.00     0.081 A 
ATOM     11  N   UNL     1      -2.699  -7.543 -44.073  1.00  0.00    -0.251 NA
ATOM     12  C   UNL     1      -1.462  -7.066 -44.320  1.00  0.00     0.116 A 
ATOM     13  C   UNL     1      -0.421  -7.836 -44.814  1.00  0.00     0.067 A 
BRANCH   9  14
ATOM     14  C   UNL     1      -4.286  -9.385 -44.100  1.00  0.00     0.269 C 
ATOM     15  N   UNL     1      -4.332 -10.692 -43.661  1.00  0.00    -0.354 N 
ATOM     16  O   UNL     1      -5.274  -8.680 -44.268  1.00  0.00    -0.268 OA
ATOM     17  C   UNL     1      -5.554 -11.315 -43.229  1.00  0.00     0.143 C 
ATOM     18  H   UNL     1      -3.434 -11.123 -43.457  1.00  0.00     0.163 HD
ENDBRANCH   9  14
ENDBRANCH   7   8
ENDBRANCH   1   7
BRANCH   4  19
ATOM     19  N   UNL     1       0.625 -15.065 -43.091  1.00  0.00    -0.308 N 
ATOM     20  C   UNL     1      -0.285 -16.114 -43.085  1.00  0.00     0.323 C 
ATOM     21  O   UNL     1      -1.347 -16.124 -43.695  1.00  0.00    -0.248 OA
ATOM     22  N   UNL     1       0.179 -17.157 -42.293  1.00  0.00    -0.308 N 
ATOM     23  H   UNL     1       1.486 -15.209 -42.589  1.00  0.00     0.171 HD
ATOM     24  H   UNL     1       1.056 -17.005 -41.819  1.00  0.00     0.171 HD
BRANCH  22  25
ATOM     25  C   UNL     1      -0.444 -18.401 -42.055  1.00  0.00     0.043 A 
ATOM     26  C   UNL     1       0.241 -19.580 -41.767  1.00  0.00     0.028 A 
ATOM     27  C   UNL     1      -1.844 -18.436 -42.112  1.00  0.00     0.040 A 
ATOM     28  C   UNL     1      -0.459 -20.769 -41.540  1.00  0.00     0.023 A 
ATOM     29  C   UNL     1      -2.565 -19.628 -41.881  1.00  0.00     0.076 A 
ATOM     30  C   UNL     1      -1.853 -20.795 -41.593  1.00  0.00     0.053 A 
ATOM     31  Cl  UNL     1      -2.636 -22.298 -41.280  1.00  0.00    -0.084 Cl
BRANCH  29  32
ATOM     32  C   UNL     1      -4.070 -19.612 -41.916  1.00  0.00     0.417 C 
ATOM     33  F   UNL     1      -4.572 -18.512 -42.552  1.00  0.00    -0.166 F 
ATOM     34  F   UNL     1      -4.612 -20.678 -42.567  1.00  0.00    -0.166 F 
ATOM     35  F   UNL     1      -4.625 -19.590 -40.671  1.00  0.00    -0.166 F 
ENDBRANCH  29  32
ENDBRANCH  22  25
ENDBRANCH   4  19
TORSDOF 6
ENDMDL
MODEL 3
REMARK minimizedAffinity -9.5759306
REMARK minimizedRMSD -1
REMARK SMILES CNC(=O)c1cc(Oc2ccc(NC(=O)Nc3ccc(Cl)c(C(F)(F)F)c3)cc2)ccn1
REMARK SMILES IDX 9 1 10 2 11 3 12 4 28 5 29 6 8 7 7 8 5 9 6 10 32 11 31 12
REMARK SMILES IDX 30 13 3 14 2 15 4 16 1 17 13 19 14 20 15 21 16 22 17 25
REMARK SMILES IDX 18 26 27 27 19 28 22 29 20 30 21 31 23 32 24 33 25 34 26 35
REMARK H PARENT 2 18 13 23 16 24
ROOT
ATOM      1  C   UNL     1       1.348 -10.250 -44.918  1.00  0.00     0.127 A 
ATOM      2  C   UNL     1       0.413 -10.271 -43.886  1.00  0.00     0.049 A 
ATOM      3  C   UNL     1       0.222 -11.446 -43.156  1.00  0.00     0.030 A 
ATOM      4  C   UNL     1       0.951 -12.606 -43.458  1.00  0.00     0.043 A 
ATOM      5  C   UNL     1       1.863 -12.573 -44.519  1.00  0.00     0.030 A 
ATOM      6  C   UNL     1       2.056 -11.399 -45.253  1.00  0.00     0.049 A 
ENDROOT
BRANCH   1   7
ATOM      7  O   UNL     1       1.533  -9.114 -45.663  1.00  0.00    -0.457 OA
BRANCH   7   8
ATOM      8  C   UNL     1       2.078  -8.012 -45.039  1.00  0.00     0.131 A 
ATOM      9  C   UNL     1       3.839  -7.188 -43.664  1.00  0.00     0.131 A 
ATOM     10  C   UNL     1       3.252  -8.252 -44.332  1.00  0.00     0.081 A 
ATOM     11  N   UNL     1       3.335  -5.920 -43.659  1.00  0.00    -0.251 NA
ATOM     12  C   UNL     1       2.192  -5.729 -44.347  1.00  0.00     0.116 A 
ATOM     13  C   UNL     1       1.530  -6.729 -45.041  1.00  0.00     0.067 A 
BRANCH   9  14
ATOM     14  C   UNL     1       5.091  -7.407 -42.870  1.00  0.00     0.269 C 
ATOM     15  N   UNL     1       5.869  -8.455 -43.316  1.00  0.00    -0.354 N 
ATOM     16  O   UNL     1       5.381  -6.688 -41.922  1.00  0.00    -0.268 OA
ATOM     17  C   UNL     1       7.177  -8.723 -42.782  1.00  0.00     0.143 C 
ATOM     18  H   UNL     1       5.565  -8.896 -44.180  1.00  0.00     0.163 HD
ENDBRANCH   9  14
ENDBRANCH   7   8
ENDBRANCH   1   7
BRANCH   4  19
ATOM     19  N   UNL     1       0.704 -13.745 -42.661  1.00  0.00    -0.308 N 
ATOM     20  C   UNL     1       0.491 -15.049 -43.091  1.00  0.00     0.323 C 
ATOM     21  O   UNL     1       0.496 -15.411 -44.260  1.00  0.00    -0.248 OA
ATOM     22  N   UNL     1       0.277 -15.890 -42.005  1.00  0.00    -0.308 N 
ATOM     23  H   UNL     1       0.728 -13.594 -41.667  1.00  0.00     0.171 HD
ATOM     24  H   UNL     1       0.267 -15.455 -41.095  1.00  0.00     0.171 HD
BRANCH  22  25
ATOM     25  C   UNL     1       0.050 -17.283 -42.026  1.00  0.00     0.043 A 
ATOM     26  C   UNL     1      -1.103 -17.883 -42.529  1.00  0.00     0.028 A 
ATOM     27  C   UNL     1       1.061 -18.104 -41.508  1.00  0.00     0.040 A 
ATOM     28  C   UNL     1      -1.243 -19.273 -42.514  1.00  0.00     0.023 A 
ATOM     29  C   UNL     1       0.937 -19.510 -41.491  1.00  0.00     0.076 A 
ATOM     30  C   UNL     1      -0.230 -20.084 -42.001  1.00  0.00     0.053 A 
ATOM     31  Cl  UNL     1      -0.475 -21.790 -42.041  1.00  0.00    -0.084 Cl
BRANCH  29  32
ATOM     32  C   UNL     1       2.063 -20.356 -40.958  1.00  0.00     0.417 C 
ATOM     33  F   UNL     1       3.106 -19.609 -40.487  1.00  0.00    -0.166 F 
ATOM     34  F   UNL     1       1.700 -21.156 -39.918  1.00  0.00    -0.166 F 
ATOM     35  F   UNL     1       2.604 -21.169 -41.908  1.00  0.00    -0.166 F 
ENDBRANCH  29  32
ENDBRANCH  22  25
ENDBRANCH   4  19
TORSDOF 6
ENDMDL
MODEL 4
REMARK minimizedAffinity -9.35908604
REMARK minimizedRMSD -1
REMARK SMILES CNC(=O)c1cc(Oc2ccc(NC(=O)Nc3ccc(Cl)c(C(F)(F)F)c3)cc2)ccn1
REMARK SMILES IDX 9 1 10 2 11 3 12 4 28 5 29 6 8 7 7 8 5 9 6 10 32 11 31 12
REMARK SMILES IDX 30 13 3 14 2 15 4 16 1 17 13 19 14 20 15 21 16 22 17 25
REMARK SMILES IDX 18 26 27 27 19 28 22 29 20 30 21 31 23 32 24 33 25 34 26 35
REMARK H PARENT 2 18 13 23 16 24
ROOT
ATOM      1  C   UNL     1       2.421 -11.307 -45.326  1.00  0.00     0.127 A 
ATOM      2  C   UNL     1       3.081 -12.525 -45.467  1.00  0.00     0.049 A 
ATOM      3  C   UNL     1       2.651 -13.629 -44.728  1.00  0.00     0.030 A 
ATOM      4  C   UNL     1       1.572 -13.521 -43.836  1.00  0.00     0.043 A 
ATOM      5  C   UNL     1       0.944 -12.280 -43.685  1.00  0.00     0.030 A 
ATOM      6  C   UNL     1       1.372 -11.172 -44.423  1.00  0.00     0.049 A 
ENDROOT
BRANCH   1   7
ATOM      7  O   UNL     1       2.842 -10.205 -46.025  1.00  0.00    -0.457 OA
BRANCH   7   8
ATOM      8  C   UNL     1       3.823  -9.417 -45.461  1.00  0.00     0.131 A 
ATOM      9  C   UNL     1       4.310  -7.660 -43.929  1.00  0.00     0.131 A 
ATOM     10  C   UNL     1       3.374  -8.497 -44.519  1.00  0.00     0.081 A 
ATOM     11  N   UNL     1       5.643  -7.684 -44.218  1.00  0.00    -0.251 NA
ATOM     12  C   UNL     1       6.038  -8.582 -45.143  1.00  0.00     0.116 A 
ATOM     13  C   UNL     1       5.178  -9.456 -45.788  1.00  0.00     0.067 A 
BRANCH   9  14
ATOM     14  C   UNL     1       3.867  -6.638 -42.927  1.00  0.00     0.269 C 
ATOM     15  N   UNL     1       4.028  -7.025 -41.613  1.00  0.00    -0.354 N 
ATOM     16  O   UNL     1       3.421  -5.551 -43.275  1.00  0.00    -0.268 OA
ATOM     17  C   UNL     1       3.806  -6.126 -40.514  1.00  0.00     0.143 C 
ATOM     18  H   UNL     1       4.513  -7.907 -41.467  1.00  0.00     0.163 HD
ENDBRANCH   9  14
ENDBRANCH   7   8
ENDBRANCH   1   7
BRANCH   4  19
ATOM     19  N   UNL     1       1.197 -14.689 -43.138  1.00  0.00    -0.308 N 
ATOM     20  C   UNL     1       0.070 -15.475 -43.346  1.00  0.00     0.323 C 
ATOM     21  O   UNL     1      -0.782 -15.265 -44.199  1.00  0.00    -0.248 OA
ATOM     22  N   UNL     1       0.049 -16.540 -42.453  1.00  0.00    -0.308 N 
ATOM     23  H   UNL     1       1.847 -15.005 -42.438  1.00  0.00     0.171 HD
ATOM     24  H   UNL     1       0.798 -16.576 -41.780  1.00  0.00     0.171 HD
BRANCH  22  25
ATOM     25  C   UNL     1      -0.914 -17.569 -42.363  1.00  0.00     0.043 A 
ATOM     26  C   UNL     1      -2.270 -17.400 -42.635  1.00  0.00     0.028 A 
ATOM     27  C   UNL     1      -0.460 -18.837 -41.979  1.00  0.00     0.040 A 
ATOM     28  C   UNL     1      -3.154 -18.478 -42.524  1.00  0.00     0.023 A 
ATOM     29  C   UNL     1      -1.339 -19.937 -41.867  1.00  0.00     0.076 A 
ATOM     30  C   UNL     1      -2.694 -19.739 -42.145  1.00  0.00     0.053 A 
ATOM     31  Cl  UNL     1      -3.848 -21.016 -42.054  1.00  0.00    -0.084 Cl
BRANCH  29  32
ATOM     32  C   UNL     1      -0.803 -21.290 -41.485  1.00  0.00     0.417 C 
ATOM     33  F   UNL     1       0.332 -21.214 -40.727  1.00  0.00    -0.166 F 
ATOM     34  F   UNL     1      -1.673 -22.035 -40.750  1.00  0.00    -0.166 F 
ATOM     35  F   UNL     1      -0.459 -22.044 -42.568  1.00  0.00    -0.166 F 
ENDBRANCH  29  32
ENDBRANCH  22  25
ENDBRANCH   4  19
TORSDOF 6
ENDMDL
MODEL 5
REMARK minimizedAffinity -9.27957153
REMARK minimizedRMSD -1
REMARK SMILES CNC(=O)c1cc(Oc2ccc(NC(=O)Nc3ccc(Cl)c(C(F)(F)F)c3)cc2)ccn1
REMARK SMILES IDX 9 1 10 2 11 3 12 4 28 5 29 6 8 7 7 8 5 9 6 10 32 11 31 12
REMARK SMILES IDX 30 13 3 14 2 15 4 16 1 17 13 19 14 20 15 21 16 22 17 25
REMARK SMILES IDX 18 26 27 27 19 28 22 29 20 30 21 31 23 32 24 33 25 34 26 35
REMARK H PARENT 2 18 13 23 16 24
ROOT
ATOM      1  C   UNL     1       0.760 -11.468 -44.872  1.00  0.00     0.127 A 
ATOM      2  C   UNL     1       0.468 -11.611 -43.518  1.00  0.00     0.049 A 
ATOM      3  C   UNL     1       0.502 -12.881 -42.939  1.00  0.00     0.030 A 
ATOM      4  C   UNL     1       0.816 -14.014 -43.707  1.00  0.00     0.043 A 
ATOM      5  C   UNL     1       1.075 -13.852 -45.072  1.00  0.00     0.030 A 
ATOM      6  C   UNL     1       1.040 -12.582 -45.656  1.00  0.00     0.049 A 
ENDROOT
BRANCH   1   7
ATOM      7  O   UNL     1       0.708 -10.233 -45.466  1.00  0.00    -0.457 OA
BRANCH   7   8
ATOM      8  C   UNL     1      -0.528  -9.741 -45.828  1.00  0.00     0.131 A 
ATOM      9  C   UNL     1      -1.910  -7.811 -46.012  1.00  0.00     0.131 A 
ATOM     10  C   UNL     1      -0.682  -8.366 -45.684  1.00  0.00     0.081 A 
ATOM     11  N   UNL     1      -2.975  -8.531 -46.469  1.00  0.00    -0.251 NA
ATOM     12  C   UNL     1      -2.789  -9.862 -46.586  1.00  0.00     0.116 A 
ATOM     13  C   UNL     1      -1.602 -10.507 -46.279  1.00  0.00     0.067 A 
BRANCH   9  14
ATOM     14  C   UNL     1      -2.129  -6.337 -45.849  1.00  0.00     0.269 C 
ATOM     15  N   UNL     1      -2.313  -5.933 -44.543  1.00  0.00    -0.354 N 
ATOM     16  O   UNL     1      -2.121  -5.578 -46.810  1.00  0.00    -0.268 OA
ATOM     17  C   UNL     1      -2.383  -4.546 -44.170  1.00  0.00     0.143 C 
ATOM     18  H   UNL     1      -2.184  -6.651 -43.835  1.00  0.00     0.163 HD
ENDBRANCH   9  14
ENDBRANCH   7   8
ENDBRANCH   1   7
BRANCH   4  19
ATOM     19  N   UNL     1       0.840 -15.257 -43.038  1.00  0.00    -0.308 N 
ATOM     20  C   UNL     1      -0.132 -16.249 -43.057  1.00  0.00     0.323 C 
ATOM     21  O   UNL     1      -1.181 -16.188 -43.686  1.00  0.00    -0.248 OA
ATOM     22  N   UNL     1       0.254 -17.324 -42.267  1.00  0.00    -0.308 N 
ATOM     23  H   UNL     1       1.681 -15.457 -42.523  1.00  0.00     0.171 HD
ATOM     24  H   UNL     1       1.130 -17.230 -41.777  1.00  0.00     0.171 HD
BRANCH  22  25
ATOM     25  C   UNL     1      -0.448 -18.530 -42.051  1.00  0.00     0.043 A 
ATOM     26  C   UNL     1       0.160 -19.758 -41.796  1.00  0.00     0.028 A 
ATOM     27  C   UNL     1      -1.847 -18.472 -42.096  1.00  0.00     0.040 A 
ATOM     28  C   UNL     1      -0.614 -20.903 -41.589  1.00  0.00     0.023 A 
ATOM     29  C   UNL     1      -2.643 -19.619 -41.885  1.00  0.00     0.076 A 
ATOM     30  C   UNL     1      -2.007 -20.836 -41.630  1.00  0.00     0.053 A 
ATOM     31  Cl  UNL     1      -2.885 -22.292 -41.344  1.00  0.00    -0.084 Cl
BRANCH  29  32
ATOM     32  C   UNL     1      -4.144 -19.504 -41.906  1.00  0.00     0.417 C 
ATOM     33  F   UNL     1      -4.698 -19.597 -40.660  1.00  0.00    -0.166 F 
ATOM     34  F   UNL     1      -4.595 -18.322 -42.408  1.00  0.00    -0.166 F 
ATOM     35  F   UNL     1      -4.737 -20.491 -42.635  1.00  0.00    -0.166 F 
ENDBRANCH  29  32
ENDBRANCH  22  25
ENDBRANCH   4  19
TORSDOF 6
ENDMDL
MODEL 6
REMARK minimizedAffinity -9.15149117
REMARK minimizedRMSD -1
REMARK SMILES CNC(=O)c1cc(Oc2ccc(NC(=O)Nc3ccc(Cl)c(C(F)(F)F)c3)cc2)ccn1
REMARK SMILES IDX 9 1 10 2 11 3 12 4 28 5 29 6 8 7 7 8 5 9 6 10 32 11 31 12
REMARK SMILES IDX 30 13 3 14 2 15 4 16 1 17 13 19 14 20 15 21 16 22 17 25
REMARK SMILES IDX 18 26 27 27 19 28 22 29 20 30 21 31 23 32 24 33 25 34 26 35
REMARK H PARENT 2 18 13 23 16 24
ROOT
ATOM      1  C   UNL     1       1.458 -10.007 -45.030  1.00  0.00     0.127 A 
ATOM      2  C   UNL     1       0.783 -10.196 -43.827  1.00  0.00     0.049 A 
ATOM      3  C   UNL     1       0.806 -11.452 -43.216  1.00  0.00     0.030 A 
ATOM      4  C   UNL     1       1.491 -12.526 -43.807  1.00  0.00     0.043 A 
ATOM      5  C   UNL     1       2.135 -12.322 -45.032  1.00  0.00     0.030 A 
ATOM      6  C   UNL     1       2.113 -11.067 -45.647  1.00  0.00     0.049 A 
ENDROOT
BRANCH   1   7
ATOM      7  O   UNL     1       1.427  -8.788 -45.658  1.00  0.00    -0.457 OA
BRANCH   7   8
ATOM      8  C   UNL     1       2.097  -7.738 -45.067  1.00  0.00     0.131 A 
ATOM      9  C   UNL     1       4.166  -6.964 -44.180  1.00  0.00     0.131 A 
ATOM     10  C   UNL     1       3.441  -7.974 -44.793  1.00  0.00     0.081 A 
ATOM     11  N   UNL     1       3.643  -5.753 -43.830  1.00  0.00    -0.251 NA
ATOM     12  C   UNL     1       2.336  -5.566 -44.104  1.00  0.00     0.116 A 
ATOM     13  C   UNL     1       1.529  -6.516 -44.709  1.00  0.00     0.067 A 
BRANCH   9  14
ATOM     14  C   UNL     1       5.610  -7.183 -43.843  1.00  0.00     0.269 C 
ATOM     15  N   UNL     1       5.852  -8.318 -43.097  1.00  0.00    -0.354 N 
ATOM     16  O   UNL     1       6.481  -6.412 -44.227  1.00  0.00    -0.268 OA
ATOM     17  C   UNL     1       7.183  -8.779 -42.809  1.00  0.00     0.143 C 
ATOM     18  H   UNL     1       5.052  -8.926 -42.943  1.00  0.00     0.163 HD
ENDBRANCH   9  14
ENDBRANCH   7   8
ENDBRANCH   1   7
BRANCH   4  19
ATOM     19  N   UNL     1       1.473 -13.757 -43.116  1.00  0.00    -0.308 N 
ATOM     20  C   UNL     1       0.542 -14.781 -43.233  1.00  0.00     0.323 C 
ATOM     21  O   UNL     1      -0.425 -14.766 -43.984  1.00  0.00    -0.248 OA
ATOM     22  N   UNL     1       0.864 -15.831 -42.382  1.00  0.00    -0.308 N 
ATOM     23  H   UNL     1       2.252 -13.920 -42.500  1.00  0.00     0.171 HD
ATOM     24  H   UNL     1       1.671 -15.699 -41.792  1.00  0.00     0.171 HD
BRANCH  22  25
ATOM     25  C   UNL     1       0.179 -17.056 -42.228  1.00  0.00     0.043 A 
ATOM     26  C   UNL     1       0.756 -18.220 -41.725  1.00  0.00     0.028 A 
ATOM     27  C   UNL     1      -1.169 -17.086 -42.608  1.00  0.00     0.040 A 
ATOM     28  C   UNL     1       0.001 -19.390 -41.603  1.00  0.00     0.023 A 
ATOM     29  C   UNL     1      -1.947 -18.259 -42.487  1.00  0.00     0.076 A 
ATOM     30  C   UNL     1      -1.343 -19.411 -41.978  1.00  0.00     0.053 A 
ATOM     31  Cl  UNL     1      -2.205 -20.890 -41.775  1.00  0.00    -0.084 Cl
BRANCH  29  32
ATOM     32  C   UNL     1      -3.402 -18.238 -42.873  1.00  0.00     0.417 C 
ATOM     33  F   UNL     1      -3.784 -17.047 -43.424  1.00  0.00    -0.166 F 
ATOM     34  F   UNL     1      -3.736 -19.181 -43.796  1.00  0.00    -0.166 F 
ATOM     35  F   UNL     1      -4.231 -18.421 -41.807  1.00  0.00    -0.166 F 
ENDBRANCH  29  32
ENDBRANCH  22  25
ENDBRANCH   4  19
TORSDOF 6
ENDMDL
MODEL 7
REMARK minimizedAffinity -9.10062981
REMARK minimizedRMSD -1
REMARK SMILES CNC(=O)c1cc(Oc2ccc(NC(=O)Nc3ccc(Cl)c(C(F)(F)F)c3)cc2)ccn1
REMARK SMILES IDX 9 1 10 2 11 3 12 4 28 5 29 6 8 7 7 8 5 9 6 10 32 11 31 12
REMARK SMILES IDX 30 13 3 14 2 15 4 16 1 17 13 19 14 20 15 21 16 22 17 25
REMARK SMILES IDX 18 26 27 27 19 28 22 29 20 30 21 31 23 32 24 33 25 34 26 35
REMARK H PARENT 2 18 13 23 16 24
ROOT
ATOM      1  C   UNL     1       2.158 -11.539 -45.380  1.00  0.00     0.127 A 
ATOM      2  C   UNL     1       2.543 -12.837 -45.708  1.00  0.00     0.049 A 
ATOM      3  C   UNL     1       2.129 -13.901 -44.903  1.00  0.00     0.030 A 
ATOM      4  C   UNL     1       1.341 -13.675 -43.764  1.00  0.00     0.043 A 
ATOM      5  C   UNL     1       0.992 -12.361 -43.435  1.00  0.00     0.030 A 
ATOM      6  C   UNL     1       1.405 -11.294 -44.237  1.00  0.00     0.049 A 
ENDROOT
BRANCH   1   7
ATOM      7  O   UNL     1       2.574 -10.479 -46.143  1.00  0.00    -0.457 OA
BRANCH   7   8
ATOM      8  C   UNL     1       3.553  -9.656 -45.629  1.00  0.00     0.131 A 
ATOM      9  C   UNL     1       5.853  -9.443 -45.050  1.00  0.00     0.131 A 
ATOM     10  C   UNL     1       4.827 -10.213 -45.577  1.00  0.00     0.081 A 
ATOM     11  N   UNL     1       5.689  -8.172 -44.582  1.00  0.00    -0.251 NA
ATOM     12  C   UNL     1       4.439  -7.670 -44.640  1.00  0.00     0.116 A 
ATOM     13  C   UNL     1       3.350  -8.364 -45.145  1.00  0.00     0.067 A 
BRANCH   9  14
ATOM     14  C   UNL     1       7.236 -10.012 -44.952  1.00  0.00     0.269 C 
ATOM     15  N   UNL     1       7.276 -11.343 -44.595  1.00  0.00    -0.354 N 
ATOM     16  O   UNL     1       8.226  -9.332 -45.191  1.00  0.00    -0.268 OA
ATOM     17  C   UNL     1       8.497 -12.103 -44.600  1.00  0.00     0.143 C 
ATOM     18  H   UNL     1       6.378 -11.814 -44.535  1.00  0.00     0.163 HD
ENDBRANCH   9  14
ENDBRANCH   7   8
ENDBRANCH   1   7
BRANCH   4  19
ATOM     19  N   UNL     1       0.957 -14.808 -43.014  1.00  0.00    -0.308 N 
ATOM     20  C   UNL     1      -0.090 -15.683 -43.276  1.00  0.00     0.323 C 
ATOM     21  O   UNL     1      -0.850 -15.598 -44.232  1.00  0.00    -0.248 OA
ATOM     22  N   UNL     1      -0.152 -16.674 -42.304  1.00  0.00    -0.308 N 
ATOM     23  H   UNL     1       1.541 -15.025 -42.223  1.00  0.00     0.171 HD
ATOM     24  H   UNL     1       0.516 -16.607 -41.552  1.00  0.00     0.171 HD
BRANCH  22  25
ATOM     25  C   UNL     1      -1.056 -17.755 -42.233  1.00  0.00     0.043 A 
ATOM     26  C   UNL     1      -2.423 -17.653 -42.486  1.00  0.00     0.028 A 
ATOM     27  C   UNL     1      -0.530 -19.007 -41.888  1.00  0.00     0.040 A 
ATOM     28  C   UNL     1      -3.246 -18.779 -42.396  1.00  0.00     0.023 A 
ATOM     29  C   UNL     1      -1.348 -20.155 -41.797  1.00  0.00     0.076 A 
ATOM     30  C   UNL     1      -2.714 -20.024 -42.057  1.00  0.00     0.053 A 
ATOM     31  Cl  UNL     1      -3.797 -21.363 -41.989  1.00  0.00    -0.084 Cl
BRANCH  29  32
ATOM     32  C   UNL     1      -0.735 -21.487 -41.458  1.00  0.00     0.417 C 
ATOM     33  F   UNL     1      -1.573 -22.283 -40.729  1.00  0.00    -0.166 F 
ATOM     34  F   UNL     1      -0.400 -22.228 -42.550  1.00  0.00    -0.166 F 
ATOM     35  F   UNL     1       0.394 -21.370 -40.703  1.00  0.00    -0.166 F 
ENDBRANCH  29  32
ENDBRANCH  22  25
ENDBRANCH   4  19
TORSDOF 6
ENDMDL
MODEL 8
REMARK minimizedAffinity -9.00214386
REMARK minimizedRMSD -1
REMARK SMILES CNC(=O)c1cc(Oc2ccc(NC(=O)Nc3ccc(Cl)c(C(F)(F)F)c3)cc2)ccn1
REMARK SMILES IDX 9 1 10 2 11 3 12 4 28 5 29 6 8 7 7 8 5 9 6 10 32 11 31 12
REMARK SMILES IDX 30 13 3 14 2 15 4 16 1 17 13 19 14 20 15 21 16 22 17 25
REMARK SMILES IDX 18 26 27 27 19 28 22 29 20 30 21 31 23 32 24 33 25 34 26 35
REMARK H PARENT 2 18 13 23 16 24
ROOT
ATOM      1  C   UNL     1       1.686 -12.002 -45.237  1.00  0.00     0.127 A 
ATOM      2  C   UNL     1       0.741 -11.951 -44.215  1.00  0.00     0.049 A 
ATOM      3  C   UNL     1       0.533 -13.077 -43.416  1.00  0.00     0.030 A 
ATOM      4  C   UNL     1       1.254 -14.260 -43.639  1.00  0.00     0.043 A 
ATOM      5  C   UNL     1       2.175 -14.301 -44.691  1.00  0.00     0.030 A 
ATOM      6  C   UNL     1       2.386 -13.176 -45.494  1.00  0.00     0.049 A 
ENDROOT
BRANCH   1   7
ATOM      7  O   UNL     1       1.889 -10.916 -46.049  1.00  0.00    -0.457 OA
BRANCH   7   8
ATOM      8  C   UNL     1       2.047  -9.683 -45.453  1.00  0.00     0.131 A 
ATOM      9  C   UNL     1       3.541  -8.205 -44.334  1.00  0.00     0.131 A 
ATOM     10  C   UNL     1       3.322  -9.421 -44.964  1.00  0.00     0.081 A 
ATOM     11  N   UNL     1       2.581  -7.250 -44.166  1.00  0.00    -0.251 NA
ATOM     12  C   UNL     1       1.356  -7.544 -44.645  1.00  0.00     0.116 A 
ATOM     13  C   UNL     1       1.040  -8.733 -45.284  1.00  0.00     0.067 A 
BRANCH   9  14
ATOM     14  C   UNL     1       4.894  -7.891 -43.771  1.00  0.00     0.269 C 
ATOM     15  N   UNL     1       5.888  -8.762 -44.166  1.00  0.00    -0.354 N 
ATOM     16  O   UNL     1       5.074  -6.926 -43.039  1.00  0.00    -0.268 OA
ATOM     17  C   UNL     1       7.274  -8.537 -43.855  1.00  0.00     0.143 C 
ATOM     18  H   UNL     1       5.622  -9.452 -44.863  1.00  0.00     0.163 HD
ENDBRANCH   9  14
ENDBRANCH   7   8
ENDBRANCH   1   7
BRANCH   4  19
ATOM     19  N   UNL     1       0.989 -15.346 -42.776  1.00  0.00    -0.308 N 
ATOM     20  C   UNL     1       0.213 -16.468 -43.039  1.00  0.00     0.323 C 
ATOM     21  O   UNL     1      -0.365 -16.687 -44.096  1.00  0.00    -0.248 OA
ATOM     22  N   UNL     1       0.188 -17.312 -41.936  1.00  0.00    -0.308 N 
ATOM     23  H   UNL     1       1.453 -15.316 -41.884  1.00  0.00     0.171 HD
ATOM     24  H   UNL     1       0.681 -16.994 -41.116  1.00  0.00     0.171 HD
BRANCH  22  25
ATOM     25  C   UNL     1      -0.468 -18.557 -41.819  1.00  0.00     0.043 A 
ATOM     26  C   UNL     1       0.183 -19.769 -41.599  1.00  0.00     0.028 A 
ATOM     27  C   UNL     1      -1.865 -18.557 -41.930  1.00  0.00     0.040 A 
ATOM     28  C   UNL     1      -0.547 -20.956 -41.491  1.00  0.00     0.023 A 
ATOM     29  C   UNL     1      -2.617 -19.747 -41.820  1.00  0.00     0.076 A 
ATOM     30  C   UNL     1      -1.939 -20.948 -41.598  1.00  0.00     0.053 A 
ATOM     31  Cl  UNL     1      -2.762 -22.453 -41.433  1.00  0.00    -0.084 Cl
BRANCH  29  32
ATOM     32  C   UNL     1      -4.119 -19.696 -41.910  1.00  0.00     0.417 C 
ATOM     33  F   UNL     1      -4.634 -20.687 -42.697  1.00  0.00    -0.166 F 
ATOM     34  F   UNL     1      -4.743 -19.834 -40.708  1.00  0.00    -0.166 F 
ATOM     35  F   UNL     1      -4.573 -18.533 -42.456  1.00  0.00    -0.166 F 
ENDBRANCH  29  32
ENDBRANCH  22  25
ENDBRANCH   4  19
TORSDOF 6
ENDMDL
MODEL 9
REMARK minimizedAffinity -8.97144985
REMARK minimizedRMSD -1
REMARK SMILES CNC(=O)c1cc(Oc2ccc(NC(=O)Nc3ccc(Cl)c(C(F)(F)F)c3)cc2)ccn1
REMARK SMILES IDX 9 1 10 2 11 3 12 4 28 5 29 6 8 7 7 8 5 9 6 10 32 11 31 12
REMARK SMILES IDX 30 13 3 14 2 15 4 16 1 17 13 19 14 20 15 21 16 22 17 25
REMARK SMILES IDX 18 26 27 27 19 28 22 29 20 30 21 31 23 32 24 33 25 34 26 35
REMARK H PARENT 2 18 13 23 16 24
ROOT
ATOM      1  C   UNL     1       6.089 -19.163 -41.305  1.00  0.00     0.127 A 
ATOM      2  C   UNL     1       5.836 -20.071 -42.330  1.00  0.00     0.049 A 
ATOM      3  C   UNL     1       4.557 -20.614 -42.468  1.00  0.00     0.030 A 
ATOM      4  C   UNL     1       3.529 -20.266 -41.578  1.00  0.00     0.043 A 
ATOM      5  C   UNL     1       3.812 -19.377 -40.536  1.00  0.00     0.030 A 
ATOM      6  C   UNL     1       5.091 -18.832 -40.394  1.00  0.00     0.049 A 
ENDROOT
BRANCH   1   7
ATOM      7  O   UNL     1       7.344 -18.637 -41.137  1.00  0.00    -0.457 OA
BRANCH   7   8
ATOM      8  C   UNL     1       7.759 -17.661 -42.018  1.00  0.00     0.131 A 
ATOM      9  C   UNL     1       7.923 -15.324 -42.447  1.00  0.00     0.131 A 
ATOM     10  C   UNL     1       7.545 -16.353 -41.596  1.00  0.00     0.081 A 
ATOM     11  N   UNL     1       8.491 -15.518 -43.672  1.00  0.00    -0.251 NA
ATOM     12  C   UNL     1       8.673 -16.800 -44.050  1.00  0.00     0.116 A 
ATOM     13  C   UNL     1       8.325 -17.892 -43.272  1.00  0.00     0.067 A 
BRANCH   9  14
ATOM     14  C   UNL     1       7.689 -13.900 -42.043  1.00  0.00     0.269 C 
ATOM     15  N   UNL     1       7.405 -13.730 -40.704  1.00  0.00    -0.354 N 
ATOM     16  O   UNL     1       7.767 -12.984 -42.852  1.00  0.00    -0.268 OA
ATOM     17  C   UNL     1       7.303 -12.430 -40.099  1.00  0.00     0.143 C 
ATOM     18  H   UNL     1       7.481 -14.563 -40.125  1.00  0.00     0.163 HD
ENDBRANCH   9  14
ENDBRANCH   7   8
ENDBRANCH   1   7
BRANCH   4  19
ATOM     19  N   UNL     1       2.264 -20.852 -41.798  1.00  0.00    -0.308 N 
ATOM     20  C   UNL     1       1.016 -20.300 -41.534  1.00  0.00     0.323 C 
ATOM     21  O   UNL     1       0.829 -19.185 -41.065  1.00  0.00    -0.248 OA
ATOM     22  N   UNL     1       0.007 -21.190 -41.882  1.00  0.00    -0.308 N 
ATOM     23  H   UNL     1       2.275 -21.759 -42.235  1.00  0.00     0.171 HD
ATOM     24  H   UNL     1       0.302 -22.090 -42.227  1.00  0.00     0.171 HD
BRANCH  22  25
ATOM     25  C   UNL     1      -1.387 -20.990 -41.788  1.00  0.00     0.043 A 
ATOM     26  C   UNL     1      -2.283 -21.931 -41.287  1.00  0.00     0.028 A 
ATOM     27  C   UNL     1      -1.887 -19.757 -42.229  1.00  0.00     0.040 A 
ATOM     28  C   UNL     1      -3.651 -21.646 -41.226  1.00  0.00     0.023 A 
ATOM     29  C   UNL     1      -3.265 -19.452 -42.171  1.00  0.00     0.076 A 
ATOM     30  C   UNL     1      -4.140 -20.415 -41.663  1.00  0.00     0.053 A 
ATOM     31  Cl  UNL     1      -5.837 -20.139 -41.534  1.00  0.00    -0.084 Cl
BRANCH  29  32
ATOM     32  C   UNL     1      -3.754 -18.102 -42.622  1.00  0.00     0.417 C 
ATOM     33  F   UNL     1      -2.756 -17.170 -42.676  1.00  0.00    -0.166 F 
ATOM     34  F   UNL     1      -4.303 -18.108 -43.868  1.00  0.00    -0.166 F 
ATOM     35  F   UNL     1      -4.690 -17.576 -41.784  1.00  0.00    -0.166 F 
ENDBRANCH  29  32
ENDBRANCH  22  25
ENDBRANCH   4  19
TORSDOF 6
ENDMDL
MODEL 10
REMARK minimizedAffinity -8.90775871
REMARK minimizedRMSD -1
REMARK SMILES CNC(=O)c1cc(Oc2ccc(NC(=O)Nc3ccc(Cl)c(C(F)(F)F)c3)cc2)ccn1
REMARK SMILES IDX 9 1 10 2 11 3 12 4 28 5 29 6 8 7 7 8 5 9 6 10 32 11 31 12
REMARK SMILES IDX 30 13 3 14 2 15 4 16 1 17 13 19 14 20 15 21 16 22 17 25
REMARK SMILES IDX 18 26 27 27 19 28 22 29 20 30 21 31 23 32 24 33 25 34 26 35
REMARK H PARENT 2 18 13 23 16 24
ROOT
ATOM      1  C   UNL     1       6.321  -8.640 -43.561  1.00  0.00     0.127 A 
ATOM      2  C   UNL     1       5.614  -8.035 -42.525  1.00  0.00     0.049 A 
ATOM      3  C   UNL     1       4.403  -7.397 -42.799  1.00  0.00     0.030 A 
ATOM      4  C   UNL     1       3.897  -7.348 -44.107  1.00  0.00     0.043 A 
ATOM      5  C   UNL     1       4.637  -7.934 -45.139  1.00  0.00     0.030 A 
ATOM      6  C   UNL     1       5.851  -8.573 -44.869  1.00  0.00     0.049 A 
ENDROOT
BRANCH   1   7
ATOM      7  O   UNL     1       7.524  -9.250 -43.317  1.00  0.00    -0.457 OA
BRANCH   7   8
ATOM      8  C   UNL     1       7.524 -10.607 -43.072  1.00  0.00     0.131 A 
ATOM      9  C   UNL     1       7.841 -12.323 -41.452  1.00  0.00     0.131 A 
ATOM     10  C   UNL     1       7.806 -10.971 -41.759  1.00  0.00     0.081 A 
ATOM     11  N   UNL     1       7.615 -13.317 -42.358  1.00  0.00    -0.251 NA
ATOM     12  C   UNL     1       7.354 -12.925 -43.622  1.00  0.00     0.116 A 
ATOM     13  C   UNL     1       7.302 -11.600 -44.025  1.00  0.00     0.067 A 
BRANCH   9  14
ATOM     14  C   UNL     1       8.166 -12.760 -40.056  1.00  0.00     0.269 C 
ATOM     15  N   UNL     1       7.073 -12.843 -39.219  1.00  0.00    -0.354 N 
ATOM     16  O   UNL     1       9.312 -13.033 -39.721  1.00  0.00    -0.268 OA
ATOM     17  C   UNL     1       7.160 -13.390 -37.892  1.00  0.00     0.143 C 
ATOM     18  H   UNL     1       6.167 -12.696 -39.657  1.00  0.00     0.163 HD
ENDBRANCH   9  14
ENDBRANCH   7   8
ENDBRANCH   1   7
BRANCH   4  19
ATOM     19  N   UNL     1       2.660  -6.694 -44.293  1.00  0.00    -0.308 N 
ATOM     20  C   UNL     1       1.430  -7.273 -44.581  1.00  0.00     0.323 C 
ATOM     21  O   UNL     1       1.234  -8.474 -44.710  1.00  0.00    -0.248 OA
ATOM     22  N   UNL     1       0.448  -6.296 -44.696  1.00  0.00    -0.308 N 
ATOM     23  H   UNL     1       2.671  -5.696 -44.159  1.00  0.00     0.171 HD
ATOM     24  H   UNL     1       0.751  -5.340 -44.598  1.00  0.00     0.171 HD
BRANCH  22  25
ATOM     25  C   UNL     1      -0.927  -6.484 -44.956  1.00  0.00     0.043 A 
ATOM     26  C   UNL     1      -1.674  -5.703 -45.835  1.00  0.00     0.028 A 
ATOM     27  C   UNL     1      -1.568  -7.532 -44.281  1.00  0.00     0.040 A 
ATOM     28  C   UNL     1      -3.032  -5.964 -46.036  1.00  0.00     0.023 A 
ATOM     29  C   UNL     1      -2.939  -7.811 -44.476  1.00  0.00     0.076 A 
ATOM     30  C   UNL     1      -3.663  -7.012 -45.364  1.00  0.00     0.053 A 
ATOM     31  Cl  UNL     1      -5.335  -7.275 -45.686  1.00  0.00    -0.084 Cl
BRANCH  29  32
ATOM     32  C   UNL     1      -3.578  -8.968 -43.757  1.00  0.00     0.417 C 
ATOM     33  F   UNL     1      -2.701  -9.639 -42.952  1.00  0.00    -0.166 F 
ATOM     34  F   UNL     1      -4.605  -8.604 -42.940  1.00  0.00    -0.166 F 
ATOM     35  F   UNL     1      -4.072  -9.909 -44.611  1.00  0.00    -0.166 F 
ENDBRANCH  29  32
ENDBRANCH  22  25
ENDBRANCH   4  19
TORSDOF 6
ENDMDL
MODEL 11
REMARK minimizedAffinity -8.81043434
REMARK minimizedRMSD -1
REMARK SMILES CNC(=O)c1cc(Oc2ccc(NC(=O)Nc3ccc(Cl)c(C(F)(F)F)c3)cc2)ccn1
REMARK SMILES IDX 9 1 10 2 11 3 12 4 28 5 29 6 8 7 7 8 5 9 6 10 32 11 31 12
REMARK SMILES IDX 30 13 3 14 2 15 4 16 1 17 13 19 14 20 15 21 16 22 17 25
REMARK SMILES IDX 18 26 27 27 19 28 22 29 20 30 21 31 23 32 24 33 25 34 26 35
REMARK H PARENT 2 18 13 23 16 24
ROOT
ATOM      1  C   UNL     1       2.439 -11.249 -45.468  1.00  0.00     0.127 A 
ATOM      2  C   UNL     1       2.289 -12.513 -46.035  1.00  0.00     0.049 A 
ATOM      3  C   UNL     1       1.475 -13.456 -45.405  1.00  0.00     0.030 A 
ATOM      4  C   UNL     1       0.818 -13.151 -44.203  1.00  0.00     0.043 A 
ATOM      5  C   UNL     1       1.008 -11.887 -43.633  1.00  0.00     0.030 A 
ATOM      6  C   UNL     1       1.823 -10.940 -44.260  1.00  0.00     0.049 A 
ENDROOT
BRANCH   1   7
ATOM      7  O   UNL     1       3.253 -10.317 -46.058  1.00  0.00    -0.457 OA
BRANCH   7   8
ATOM      8  C   UNL     1       4.440 -10.004 -45.430  1.00  0.00     0.131 A 
ATOM      9  C   UNL     1       6.580 -10.790 -44.743  1.00  0.00     0.131 A 
ATOM     10  C   UNL     1       5.373 -11.035 -45.380  1.00  0.00     0.081 A 
ATOM     11  N   UNL     1       6.909  -9.599 -44.164  1.00  0.00    -0.251 NA
ATOM     12  C   UNL     1       5.976  -8.628 -44.225  1.00  0.00     0.116 A 
ATOM     13  C   UNL     1       4.741  -8.779 -44.835  1.00  0.00     0.067 A 
BRANCH   9  14
ATOM     14  C   UNL     1       7.604 -11.880 -44.644  1.00  0.00     0.269 C 
ATOM     15  N   UNL     1       8.271 -11.922 -43.438  1.00  0.00    -0.354 N 
ATOM     16  O   UNL     1       7.796 -12.663 -45.566  1.00  0.00    -0.268 OA
ATOM     17  C   UNL     1       9.176 -12.987 -43.096  1.00  0.00     0.143 C 
ATOM     18  H   UNL     1       7.934 -11.284 -42.722  1.00  0.00     0.163 HD
ENDBRANCH   9  14
ENDBRANCH   7   8
ENDBRANCH   1   7
BRANCH   4  19
ATOM     19  N   UNL     1       0.006 -14.159 -43.641  1.00  0.00    -0.308 N 
ATOM     20  C   UNL     1       0.312 -15.505 -43.485  1.00  0.00     0.323 C 
ATOM     21  O   UNL     1       1.369 -16.026 -43.816  1.00  0.00    -0.248 OA
ATOM     22  N   UNL     1      -0.749 -16.180 -42.894  1.00  0.00    -0.308 N 
ATOM     23  H   UNL     1      -0.880 -13.850 -43.275  1.00  0.00     0.171 HD
ATOM     24  H   UNL     1      -1.576 -15.637 -42.702  1.00  0.00     0.171 HD
BRANCH  22  25
ATOM     25  C   UNL     1      -0.815 -17.548 -42.550  1.00  0.00     0.043 A 
ATOM     26  C   UNL     1      -1.946 -18.345 -42.714  1.00  0.00     0.028 A 
ATOM     27  C   UNL     1       0.342 -18.128 -42.013  1.00  0.00     0.040 A 
ATOM     28  C   UNL     1      -1.921 -19.694 -42.349  1.00  0.00     0.023 A 
ATOM     29  C   UNL     1       0.385 -19.491 -41.644  1.00  0.00     0.076 A 
ATOM     30  C   UNL     1      -0.763 -20.267 -41.820  1.00  0.00     0.053 A 
ATOM     31  Cl  UNL     1      -0.814 -21.942 -41.416  1.00  0.00    -0.084 Cl
BRANCH  29  32
ATOM     32  C   UNL     1       1.660 -20.082 -41.104  1.00  0.00     0.417 C 
ATOM     33  F   UNL     1       1.518 -20.575 -39.838  1.00  0.00    -0.166 F 
ATOM     34  F   UNL     1       2.133 -21.124 -41.841  1.00  0.00    -0.166 F 
ATOM     35  F   UNL     1       2.668 -19.169 -41.022  1.00  0.00    -0.166 F 
ENDBRANCH  29  32
ENDBRANCH  22  25
ENDBRANCH   4  19
TORSDOF 6
ENDMDL
MODEL 12
REMARK minimizedAffinity -8.78174686
REMARK minimizedRMSD -1
REMARK SMILES CNC(=O)c1cc(Oc2ccc(NC(=O)Nc3ccc(Cl)c(C(F)(F)F)c3)cc2)ccn1
REMARK SMILES IDX 9 1 10 2 11 3 12 4 28 5 29 6 8 7 7 8 5 9 6 10 32 11 31 12
REMARK SMILES IDX 30 13 3 14 2 15 4 16 1 17 13 19 14 20 15 21 16 22 17 25
REMARK SMILES IDX 18 26 27 27 19 28 22 29 20 30 21 31 23 32 24 33 25 34 26 35
REMARK H PARENT 2 18 13 23 16 24
ROOT
ATOM      1  C   UNL     1       0.975 -20.634 -41.048  1.00  0.00     0.127 A 
ATOM      2  C   UNL     1       2.123 -20.916 -41.785  1.00  0.00     0.049 A 
ATOM      3  C   UNL     1       3.287 -20.182 -41.550  1.00  0.00     0.030 A 
ATOM      4  C   UNL     1       3.311 -19.159 -40.590  1.00  0.00     0.043 A 
ATOM      5  C   UNL     1       2.139 -18.871 -39.884  1.00  0.00     0.030 A 
ATOM      6  C   UNL     1       0.970 -19.601 -40.117  1.00  0.00     0.049 A 
ENDROOT
BRANCH   1   7
ATOM      7  O   UNL     1      -0.186 -21.326 -41.280  1.00  0.00    -0.457 OA
BRANCH   7   8
ATOM      8  C   UNL     1      -1.306 -20.608 -41.642  1.00  0.00     0.131 A 
ATOM      9  C   UNL     1      -2.141 -18.579 -42.566  1.00  0.00     0.131 A 
ATOM     10  C   UNL     1      -1.054 -19.359 -42.200  1.00  0.00     0.081 A 
ATOM     11  N   UNL     1      -3.441 -18.962 -42.411  1.00  0.00    -0.251 NA
ATOM     12  C   UNL     1      -3.645 -20.174 -41.858  1.00  0.00     0.116 A 
ATOM     13  C   UNL     1      -2.625 -21.023 -41.458  1.00  0.00     0.067 A 
BRANCH   9  14
ATOM     14  C   UNL     1      -1.916 -17.216 -43.148  1.00  0.00     0.269 C 
ATOM     15  N   UNL     1      -0.643 -16.722 -42.958  1.00  0.00    -0.354 N 
ATOM     16  O   UNL     1      -2.802 -16.624 -43.752  1.00  0.00    -0.268 OA
ATOM     17  C   UNL     1      -0.191 -15.503 -43.574  1.00  0.00     0.143 C 
ATOM     18  H   UNL     1       0.024 -17.363 -42.538  1.00  0.00     0.163 HD
ENDBRANCH   9  14
ENDBRANCH   7   8
ENDBRANCH   1   7
BRANCH   4  19
ATOM     19  N   UNL     1       4.533 -18.476 -40.409  1.00  0.00    -0.308 N 
ATOM     20  C   UNL     1       5.194 -17.663 -41.322  1.00  0.00     0.323 C 
ATOM     21  O   UNL     1       4.792 -17.406 -42.449  1.00  0.00    -0.248 OA
ATOM     22  N   UNL     1       6.374 -17.176 -40.774  1.00  0.00    -0.308 N 
ATOM     23  H   UNL     1       4.947 -18.561 -39.495  1.00  0.00     0.171 HD
ATOM     24  H   UNL     1       6.603 -17.493 -39.845  1.00  0.00     0.171 HD
BRANCH  22  25
ATOM     25  C   UNL     1       7.306 -16.302 -41.375  1.00  0.00     0.043 A 
ATOM     26  C   UNL     1       8.395 -16.720 -42.137  1.00  0.00     0.028 A 
ATOM     27  C   UNL     1       7.107 -14.928 -41.187  1.00  0.00     0.040 A 
ATOM     28  C   UNL     1       9.266 -15.783 -42.700  1.00  0.00     0.023 A 
ATOM     29  C   UNL     1       7.976 -13.969 -41.753  1.00  0.00     0.076 A 
ATOM     30  C   UNL     1       9.059 -14.416 -42.513  1.00  0.00     0.053 A 
ATOM     31  Cl  UNL     1      10.170 -13.330 -43.260  1.00  0.00    -0.084 Cl
BRANCH  29  32
ATOM     32  C   UNL     1       7.704 -12.502 -41.556  1.00  0.00     0.417 C 
ATOM     33  F   UNL     1       8.798 -11.818 -41.106  1.00  0.00    -0.166 F 
ATOM     34  F   UNL     1       7.326 -11.858 -42.695  1.00  0.00    -0.166 F 
ATOM     35  F   UNL     1       6.730 -12.267 -40.632  1.00  0.00    -0.166 F 
ENDBRANCH  29  32
ENDBRANCH  22  25
ENDBRANCH   4  19
TORSDOF 6
ENDMDL
MODEL 13
REMARK minimizedAffinity -8.77718449
REMARK minimizedRMSD -1
REMARK SMILES CNC(=O)c1cc(Oc2ccc(NC(=O)Nc3ccc(Cl)c(C(F)(F)F)c3)cc2)ccn1
REMARK SMILES IDX 9 1 10 2 11 3 12 4 28 5 29 6 8 7 7 8 5 9 6 10 32 11 31 12
REMARK SMILES IDX 30 13 3 14 2 15 4 16 1 17 13 19 14 20 15 21 16 22 17 25
REMARK SMILES IDX 18 26 27 27 19 28 22 29 20 30 21 31 23 32 24 33 25 34 26 35
REMARK H PARENT 2 18 13 23 16 24
ROOT
ATOM      1  C   UNL     1       5.805 -11.928 -45.211  1.00  0.00     0.127 A 
ATOM      2  C   UNL     1       5.419 -10.601 -45.382  1.00  0.00     0.049 A 
ATOM      3  C   UNL     1       4.064 -10.292 -45.519  1.00  0.00     0.030 A 
ATOM      4  C   UNL     1       3.091 -11.303 -45.498  1.00  0.00     0.043 A 
ATOM      5  C   UNL     1       3.502 -12.632 -45.357  1.00  0.00     0.030 A 
ATOM      6  C   UNL     1       4.857 -12.946 -45.221  1.00  0.00     0.049 A 
ENDROOT
BRANCH   1   7
ATOM      7  O   UNL     1       7.132 -12.256 -45.099  1.00  0.00    -0.457 OA
BRANCH   7   8
ATOM      8  C   UNL     1       7.506 -13.102 -44.077  1.00  0.00     0.131 A 
ATOM      9  C   UNL     1       7.690 -13.394 -41.721  1.00  0.00     0.131 A 
ATOM     10  C   UNL     1       7.315 -12.600 -42.793  1.00  0.00     0.081 A 
ATOM     11  N   UNL     1       8.235 -14.639 -41.848  1.00  0.00    -0.251 NA
ATOM     12  C   UNL     1       8.414 -15.087 -43.107  1.00  0.00     0.116 A 
ATOM     13  C   UNL     1       8.074 -14.365 -44.240  1.00  0.00     0.067 A 
BRANCH   9  14
ATOM     14  C   UNL     1       7.525 -12.884 -40.322  1.00  0.00     0.269 C 
ATOM     15  N   UNL     1       7.368 -13.872 -39.373  1.00  0.00    -0.354 N 
ATOM     16  O   UNL     1       7.550 -11.685 -40.071  1.00  0.00    -0.268 OA
ATOM     17  C   UNL     1       7.350 -13.588 -37.963  1.00  0.00     0.143 C 
ATOM     18  H   UNL     1       7.478 -14.826 -39.704  1.00  0.00     0.163 HD
ENDBRANCH   9  14
ENDBRANCH   7   8
ENDBRANCH   1   7
BRANCH   4  19
ATOM     19  N   UNL     1       1.744 -10.900 -45.631  1.00  0.00    -0.308 N 
ATOM     20  C   UNL     1       1.002 -10.120 -44.752  1.00  0.00     0.323 C 
ATOM     21  O   UNL     1       1.427  -9.648 -43.706  1.00  0.00    -0.248 OA
ATOM     22  N   UNL     1      -0.291  -9.945 -45.230  1.00  0.00    -0.308 N 
ATOM     23  H   UNL     1       1.289 -11.179 -46.484  1.00  0.00     0.171 HD
ATOM     24  H   UNL     1      -0.519 -10.417 -46.091  1.00  0.00     0.171 HD
BRANCH  22  25
ATOM     25  C   UNL     1      -1.334  -9.200 -44.639  1.00  0.00     0.043 A 
ATOM     26  C   UNL     1      -1.274  -7.831 -44.385  1.00  0.00     0.028 A 
ATOM     27  C   UNL     1      -2.500  -9.895 -44.293  1.00  0.00     0.040 A 
ATOM     28  C   UNL     1      -2.358  -7.171 -43.799  1.00  0.00     0.023 A 
ATOM     29  C   UNL     1      -3.605  -9.242 -43.704  1.00  0.00     0.076 A 
ATOM     30  C   UNL     1      -3.518  -7.869 -43.462  1.00  0.00     0.053 A 
ATOM     31  Cl  UNL     1      -4.814  -6.973 -42.762  1.00  0.00    -0.084 Cl
BRANCH  29  32
ATOM     32  C   UNL     1      -4.852 -10.021 -43.382  1.00  0.00     0.417 C 
ATOM     33  F   UNL     1      -5.962  -9.520 -44.002  1.00  0.00    -0.166 F 
ATOM     34  F   UNL     1      -4.793 -11.327 -43.759  1.00  0.00    -0.166 F 
ATOM     35  F   UNL     1      -5.150 -10.010 -42.052  1.00  0.00    -0.166 F 
ENDBRANCH  29  32
ENDBRANCH  22  25
ENDBRANCH   4  19
TORSDOF 6
ENDMDL
MODEL 14
REMARK minimizedAffinity -8.74359226
REMARK minimizedRMSD -1
REMARK SMILES CNC(=O)c1cc(Oc2ccc(NC(=O)Nc3ccc(Cl)c(C(F)(F)F)c3)cc2)ccn1
REMARK SMILES IDX 9 1 10 2 11 3 12 4 28 5 29 6 8 7 7 8 5 9 6 10 32 11 31 12
REMARK SMILES IDX 30 13 3 14 2 15 4 16 1 17 13 19 14 20 15 21 16 22 17 25
REMARK SMILES IDX 18 26 27 27 19 28 22 29 20 30 21 31 23 32 24 33 25 34 26 35
REMARK H PARENT 2 18 13 23 16 24
ROOT
ATOM      1  C   UNL     1       2.355 -19.878 -40.651  1.00  0.00     0.127 A 
ATOM      2  C   UNL     1       3.116 -18.903 -40.010  1.00  0.00     0.049 A 
ATOM      3  C   UNL     1       4.438 -18.693 -40.405  1.00  0.00     0.030 A 
ATOM      4  C   UNL     1       5.012 -19.459 -41.431  1.00  0.00     0.043 A 
ATOM      5  C   UNL     1       4.241 -20.455 -42.041  1.00  0.00     0.030 A 
ATOM      6  C   UNL     1       2.917 -20.669 -41.647  1.00  0.00     0.049 A 
ENDROOT
BRANCH   1   7
ATOM      7  O   UNL     1       1.062 -20.116 -40.261  1.00  0.00    -0.457 OA
BRANCH   7   8
ATOM      8  C   UNL     1       0.052 -19.815 -41.150  1.00  0.00     0.131 A 
ATOM      9  C   UNL     1      -0.913 -18.155 -42.557  1.00  0.00     0.131 A 
ATOM     10  C   UNL     1       0.088 -18.526 -41.672  1.00  0.00     0.081 A 
ATOM     11  N   UNL     1      -1.930 -18.977 -42.947  1.00  0.00    -0.251 NA
ATOM     12  C   UNL     1      -1.936 -20.214 -42.412  1.00  0.00     0.116 A 
ATOM     13  C   UNL     1      -0.983 -20.675 -41.518  1.00  0.00     0.067 A 
BRANCH   9  14
ATOM     14  C   UNL     1      -0.928 -16.768 -43.125  1.00  0.00     0.269 C 
ATOM     15  N   UNL     1       0.175 -16.009 -42.794  1.00  0.00    -0.354 N 
ATOM     16  O   UNL     1      -1.846 -16.376 -43.834  1.00  0.00    -0.268 OA
ATOM     17  C   UNL     1       0.416 -14.712 -43.367  1.00  0.00     0.143 C 
ATOM     18  H   UNL     1       0.913 -16.494 -42.292  1.00  0.00     0.163 HD
ENDBRANCH   9  14
ENDBRANCH   7   8
ENDBRANCH   1   7
BRANCH   4  19
ATOM     19  N   UNL     1       6.351 -19.172 -41.776  1.00  0.00    -0.308 N 
ATOM     20  C   UNL     1       6.814 -18.148 -42.592  1.00  0.00     0.323 C 
ATOM     21  O   UNL     1       6.105 -17.314 -43.141  1.00  0.00    -0.248 OA
ATOM     22  N   UNL     1       8.199 -18.196 -42.695  1.00  0.00    -0.308 N 
ATOM     23  H   UNL     1       7.046 -19.756 -41.342  1.00  0.00     0.171 HD
ATOM     24  H   UNL     1       8.658 -18.956 -42.217  1.00  0.00     0.171 HD
BRANCH  22  25
ATOM     25  C   UNL     1       9.041 -17.317 -43.409  1.00  0.00     0.043 A 
ATOM     26  C   UNL     1       9.273 -17.394 -44.781  1.00  0.00     0.028 A 
ATOM     27  C   UNL     1       9.675 -16.304 -42.678  1.00  0.00     0.040 A 
ATOM     28  C   UNL     1      10.120 -16.476 -45.409  1.00  0.00     0.023 A 
ATOM     29  C   UNL     1      10.531 -15.367 -43.298  1.00  0.00     0.076 A 
ATOM     30  C   UNL     1      10.744 -15.467 -44.675  1.00  0.00     0.053 A 
ATOM     31  Cl  UNL     1      11.757 -14.366 -45.532  1.00  0.00    -0.084 Cl
BRANCH  29  32
ATOM     32  C   UNL     1      11.164 -14.273 -42.481  1.00  0.00     0.417 C 
ATOM     33  F   UNL     1      12.529 -14.287 -42.546  1.00  0.00    -0.166 F 
ATOM     34  F   UNL     1      10.802 -13.020 -42.871  1.00  0.00    -0.166 F 
ATOM     35  F   UNL     1      10.868 -14.371 -41.154  1.00  0.00    -0.166 F 
ENDBRANCH  29  32
ENDBRANCH  22  25
ENDBRANCH   4  19
TORSDOF 6
ENDMDL
MODEL 15
REMARK minimizedAffinity -8.74201012
REMARK minimizedRMSD -1
REMARK SMILES CNC(=O)c1cc(Oc2ccc(NC(=O)Nc3ccc(Cl)c(C(F)(F)F)c3)cc2)ccn1
REMARK SMILES IDX 9 1 10 2 11 3 12 4 28 5 29 6 8 7 7 8 5 9 6 10 32 11 31 12
REMARK SMILES IDX 30 13 3 14 2 15 4 16 1 17 13 19 14 20 15 21 16 22 17 25
REMARK SMILES IDX 18 26 27 27 19 28 22 29 20 30 21 31 23 32 24 33 25 34 26 35
REMARK H PARENT 2 18 13 23 16 24
ROOT
ATOM      1  C   UNL     1       2.095 -19.743 -40.622  1.00  0.00     0.127 A 
ATOM      2  C   UNL     1       2.660 -20.645 -41.520  1.00  0.00     0.049 A 
ATOM      3  C   UNL     1       4.011 -20.528 -41.853  1.00  0.00     0.030 A 
ATOM      4  C   UNL     1       4.801 -19.506 -41.304  1.00  0.00     0.043 A 
ATOM      5  C   UNL     1       4.206 -18.591 -40.429  1.00  0.00     0.030 A 
ATOM      6  C   UNL     1       2.854 -18.704 -40.094  1.00  0.00     0.049 A 
ENDROOT
BRANCH   1   7
ATOM      7  O   UNL     1       0.765 -19.825 -40.301  1.00  0.00    -0.457 OA
BRANCH   7   8
ATOM      8  C   UNL     1      -0.158 -19.521 -41.279  1.00  0.00     0.131 A 
ATOM      9  C   UNL     1      -0.926 -17.888 -42.832  1.00  0.00     0.131 A 
ATOM     10  C   UNL     1      -0.016 -18.263 -41.855  1.00  0.00     0.081 A 
ATOM     11  N   UNL     1      -1.952 -18.678 -43.262  1.00  0.00    -0.251 NA
ATOM     12  C   UNL     1      -2.062 -19.886 -42.674  1.00  0.00     0.116 A 
ATOM     13  C   UNL     1      -1.205 -20.347 -41.687  1.00  0.00     0.067 A 
BRANCH   9  14
ATOM     14  C   UNL     1      -0.826 -16.532 -43.462  1.00  0.00     0.269 C 
ATOM     15  N   UNL     1       0.122 -15.709 -42.889  1.00  0.00    -0.354 N 
ATOM     16  O   UNL     1      -1.526 -16.215 -44.416  1.00  0.00    -0.268 OA
ATOM     17  C   UNL     1       0.471 -14.432 -43.450  1.00  0.00     0.143 C 
ATOM     18  H   UNL     1       0.708 -16.137 -42.178  1.00  0.00     0.163 HD
ENDBRANCH   9  14
ENDBRANCH   7   8
ENDBRANCH   1   7
BRANCH   4  19
ATOM     19  N   UNL     1       6.160 -19.469 -41.685  1.00  0.00    -0.308 N 
ATOM     20  C   UNL     1       7.272 -19.401 -40.855  1.00  0.00     0.323 C 
ATOM     21  O   UNL     1       7.231 -19.371 -39.632  1.00  0.00    -0.248 OA
ATOM     22  N   UNL     1       8.440 -19.377 -41.607  1.00  0.00    -0.308 N 
ATOM     23  H   UNL     1       6.336 -19.542 -42.674  1.00  0.00     0.171 HD
ATOM     24  H   UNL     1       8.329 -19.374 -42.609  1.00  0.00     0.171 HD
BRANCH  22  25
ATOM     25  C   UNL     1       9.769 -19.336 -41.132  1.00  0.00     0.043 A 
ATOM     26  C   UNL     1      10.691 -18.347 -41.467  1.00  0.00     0.028 A 
ATOM     27  C   UNL     1      10.170 -20.361 -40.266  1.00  0.00     0.040 A 
ATOM     28  C   UNL     1      11.988 -18.382 -40.946  1.00  0.00     0.023 A 
ATOM     29  C   UNL     1      11.475 -20.408 -39.727  1.00  0.00     0.076 A 
ATOM     30  C   UNL     1      12.379 -19.403 -40.080  1.00  0.00     0.053 A 
ATOM     31  Cl  UNL     1      13.990 -19.358 -39.468  1.00  0.00    -0.084 Cl
BRANCH  29  32
ATOM     32  C   UNL     1      11.853 -21.508 -38.771  1.00  0.00     0.417 C 
ATOM     33  F   UNL     1      12.983 -22.174 -39.154  1.00  0.00    -0.166 F 
ATOM     34  F   UNL     1      12.109 -21.069 -37.508  1.00  0.00    -0.166 F 
ATOM     35  F   UNL     1      10.890 -22.467 -38.666  1.00  0.00    -0.166 F 
ENDBRANCH  29  32
ENDBRANCH  22  25
ENDBRANCH   4  19
TORSDOF 6
ENDMDL
MODEL 16
REMARK minimizedAffinity -8.68435097
REMARK minimizedRMSD -1
REMARK SMILES CNC(=O)c1cc(Oc2ccc(NC(=O)Nc3ccc(Cl)c(C(F)(F)F)c3)cc2)ccn1
REMARK SMILES IDX 9 1 10 2 11 3 12 4 28 5 29 6 8 7 7 8 5 9 6 10 32 11 31 12
REMARK SMILES IDX 30 13 3 14 2 15 4 16 1 17 13 19 14 20 15 21 16 22 17 25
REMARK SMILES IDX 18 26 27 27 19 28 22 29 20 30 21 31 23 32 24 33 25 34 26 35
REMARK H PARENT 2 18 13 23 16 24
ROOT
ATOM      1  C   UNL     1       0.266 -11.780 -45.351  1.00  0.00     0.127 A 
ATOM      2  C   UNL     1       0.252 -13.033 -45.959  1.00  0.00     0.049 A 
ATOM      3  C   UNL     1       0.336 -14.181 -45.170  1.00  0.00     0.030 A 
ATOM      4  C   UNL     1       0.446 -14.087 -43.774  1.00  0.00     0.043 A 
ATOM      5  C   UNL     1       0.490 -12.819 -43.185  1.00  0.00     0.030 A 
ATOM      6  C   UNL     1       0.408 -11.667 -43.972  1.00  0.00     0.049 A 
ENDROOT
BRANCH   1   7
ATOM      7  O   UNL     1       0.209 -10.639 -46.109  1.00  0.00    -0.457 OA
BRANCH   7   8
ATOM      8  C   UNL     1      -0.479  -9.558 -45.602  1.00  0.00     0.131 A 
ATOM      9  C   UNL     1      -0.368  -7.268 -44.961  1.00  0.00     0.131 A 
ATOM     10  C   UNL     1       0.262  -8.387 -45.484  1.00  0.00     0.081 A 
ATOM     11  N   UNL     1      -1.671  -7.246 -44.556  1.00  0.00    -0.251 NA
ATOM     12  C   UNL     1      -2.353  -8.402 -44.676  1.00  0.00     0.116 A 
ATOM     13  C   UNL     1      -1.810  -9.572 -45.183  1.00  0.00     0.067 A 
BRANCH   9  14
ATOM     14  C   UNL     1       0.399  -5.991 -44.794  1.00  0.00     0.269 C 
ATOM     15  N   UNL     1       1.737  -6.168 -44.511  1.00  0.00    -0.354 N 
ATOM     16  O   UNL     1      -0.140  -4.899 -44.921  1.00  0.00    -0.268 OA
ATOM     17  C   UNL     1       2.665  -5.070 -44.469  1.00  0.00     0.143 C 
ATOM     18  H   UNL     1       2.075  -7.126 -44.545  1.00  0.00     0.163 HD
ENDBRANCH   9  14
ENDBRANCH   7   8
ENDBRANCH   1   7
BRANCH   4  19
ATOM     19  N   UNL     1       0.513 -15.299 -43.052  1.00  0.00    -0.308 N 
ATOM     20  C   UNL     1      -0.387 -16.357 -43.087  1.00  0.00     0.323 C 
ATOM     21  O   UNL     1      -1.397 -16.394 -43.778  1.00  0.00    -0.248 OA
ATOM     22  N   UNL     1       0.022 -17.371 -42.230  1.00  0.00    -0.308 N 
ATOM     23  H   UNL     1       1.332 -15.419 -42.480  1.00  0.00     0.171 HD
ATOM     24  H   UNL     1       0.857 -17.197 -41.693  1.00  0.00     0.171 HD
BRANCH  22  25
ATOM     25  C   UNL     1      -0.609 -18.614 -42.005  1.00  0.00     0.043 A 
ATOM     26  C   UNL     1       0.070 -19.808 -41.772  1.00  0.00     0.028 A 
ATOM     27  C   UNL     1      -2.010 -18.631 -42.015  1.00  0.00     0.040 A 
ATOM     28  C   UNL     1      -0.636 -20.995 -41.554  1.00  0.00     0.023 A 
ATOM     29  C   UNL     1      -2.738 -19.821 -41.792  1.00  0.00     0.076 A 
ATOM     30  C   UNL     1      -2.032 -21.003 -41.561  1.00  0.00     0.053 A 
ATOM     31  Cl  UNL     1      -2.823 -22.505 -41.262  1.00  0.00    -0.084 Cl
BRANCH  29  32
ATOM     32  C   UNL     1      -4.243 -19.787 -41.777  1.00  0.00     0.417 C 
ATOM     33  F   UNL     1      -4.801 -20.812 -42.488  1.00  0.00    -0.166 F 
ATOM     34  F   UNL     1      -4.779 -19.886 -40.530  1.00  0.00    -0.166 F 
ATOM     35  F   UNL     1      -4.749 -18.649 -42.332  1.00  0.00    -0.166 F 
ENDBRANCH  29  32
ENDBRANCH  22  25
ENDBRANCH   4  19
TORSDOF 6
ENDMDL
MODEL 17
REMARK minimizedAffinity -8.62801075
REMARK minimizedRMSD -1
REMARK SMILES CNC(=O)c1cc(Oc2ccc(NC(=O)Nc3ccc(Cl)c(C(F)(F)F)c3)cc2)ccn1
REMARK SMILES IDX 9 1 10 2 11 3 12 4 28 5 29 6 8 7 7 8 5 9 6 10 32 11 31 12
REMARK SMILES IDX 30 13 3 14 2 15 4 16 1 17 13 19 14 20 15 21 16 22 17 25
REMARK SMILES IDX 18 26 27 27 19 28 22 29 20 30 21 31 23 32 24 33 25 34 26 35
REMARK H PARENT 2 18 13 23 16 24
ROOT
ATOM      1  C   UNL     1       2.217 -11.080 -45.403  1.00  0.00     0.127 A 
ATOM      2  C   UNL     1       1.602 -10.861 -44.174  1.00  0.00     0.049 A 
ATOM      3  C   UNL     1       0.896 -11.901 -43.563  1.00  0.00     0.030 A 
ATOM      4  C   UNL     1       0.791 -13.157 -44.180  1.00  0.00     0.043 A 
ATOM      5  C   UNL     1       1.390 -13.347 -45.430  1.00  0.00     0.030 A 
ATOM      6  C   UNL     1       2.096 -12.308 -46.045  1.00  0.00     0.049 A 
ENDROOT
BRANCH   1   7
ATOM      7  O   UNL     1       2.894 -10.066 -46.031  1.00  0.00    -0.457 OA
BRANCH   7   8
ATOM      8  C   UNL     1       4.206  -9.843 -45.670  1.00  0.00     0.131 A 
ATOM      9  C   UNL     1       5.914  -8.219 -45.332  1.00  0.00     0.131 A 
ATOM     10  C   UNL     1       4.600  -8.509 -45.666  1.00  0.00     0.081 A 
ATOM     11  N   UNL     1       6.843  -9.164 -45.006  1.00  0.00    -0.251 NA
ATOM     12  C   UNL     1       6.427 -10.445 -45.030  1.00  0.00     0.116 A 
ATOM     13  C   UNL     1       5.136 -10.833 -45.355  1.00  0.00     0.067 A 
BRANCH   9  14
ATOM     14  C   UNL     1       6.388  -6.798 -45.339  1.00  0.00     0.269 C 
ATOM     15  N   UNL     1       5.511  -5.911 -45.927  1.00  0.00    -0.354 N 
ATOM     16  O   UNL     1       7.461  -6.478 -44.841  1.00  0.00    -0.268 OA
ATOM     17  C   UNL     1       5.717  -4.488 -45.892  1.00  0.00     0.143 C 
ATOM     18  H   UNL     1       4.609  -6.293 -46.198  1.00  0.00     0.163 HD
ENDBRANCH   9  14
ENDBRANCH   7   8
ENDBRANCH   1   7
BRANCH   4  19
ATOM     19  N   UNL     1       0.070 -14.154 -43.488  1.00  0.00    -0.308 N 
ATOM     20  C   UNL     1       0.289 -15.526 -43.507  1.00  0.00     0.323 C 
ATOM     21  O   UNL     1       1.175 -16.085 -44.142  1.00  0.00    -0.248 OA
ATOM     22  N   UNL     1      -0.634 -16.177 -42.698  1.00  0.00    -0.308 N 
ATOM     23  H   UNL     1      -0.659 -13.820 -42.880  1.00  0.00     0.171 HD
ATOM     24  H   UNL     1      -1.332 -15.599 -42.257  1.00  0.00     0.171 HD
BRANCH  22  25
ATOM     25  C   UNL     1      -0.725 -17.562 -42.438  1.00  0.00     0.043 A 
ATOM     26  C   UNL     1      -1.864 -18.330 -42.666  1.00  0.00     0.028 A 
ATOM     27  C   UNL     1       0.415 -18.191 -41.920  1.00  0.00     0.040 A 
ATOM     28  C   UNL     1      -1.864 -19.699 -42.383  1.00  0.00     0.023 A 
ATOM     29  C   UNL     1       0.432 -19.573 -41.633  1.00  0.00     0.076 A 
ATOM     30  C   UNL     1      -0.724 -20.320 -41.872  1.00  0.00     0.053 A 
ATOM     31  Cl  UNL     1      -0.804 -22.015 -41.571  1.00  0.00    -0.084 Cl
BRANCH  29  32
ATOM     32  C   UNL     1       1.690 -20.215 -41.111  1.00  0.00     0.417 C 
ATOM     33  F   UNL     1       2.706 -19.319 -40.934  1.00  0.00    -0.166 F 
ATOM     34  F   UNL     1       1.534 -20.819 -39.901  1.00  0.00    -0.166 F 
ATOM     35  F   UNL     1       2.189 -21.159 -41.959  1.00  0.00    -0.166 F 
ENDBRANCH  29  32
ENDBRANCH  22  25
ENDBRANCH   4  19
TORSDOF 6
ENDMDL
MODEL 18
REMARK minimizedAffinity -8.57588768
REMARK minimizedRMSD -1
REMARK SMILES CNC(=O)c1cc(Oc2ccc(NC(=O)Nc3ccc(Cl)c(C(F)(F)F)c3)cc2)ccn1
REMARK SMILES IDX 9 1 10 2 11 3 12 4 28 5 29 6 8 7 7 8 5 9 6 10 32 11 31 12
REMARK SMILES IDX 30 13 3 14 2 15 4 16 1 17 13 19 14 20 15 21 16 22 17 25
REMARK SMILES IDX 18 26 27 27 19 28 22 29 20 30 21 31 23 32 24 33 25 34 26 35
REMARK H PARENT 2 18 13 23 16 24
ROOT
ATOM      1  C   UNL     1       5.523 -11.997 -45.207  1.00  0.00     0.127 A 
ATOM      2  C   UNL     1       4.377 -12.788 -45.223  1.00  0.00     0.049 A 
ATOM      3  C   UNL     1       3.129 -12.186 -45.395  1.00  0.00     0.030 A 
ATOM      4  C   UNL     1       3.016 -10.794 -45.539  1.00  0.00     0.043 A 
ATOM      5  C   UNL     1       4.177 -10.015 -45.489  1.00  0.00     0.030 A 
ATOM      6  C   UNL     1       5.428 -10.614 -45.316  1.00  0.00     0.049 A 
ENDROOT
BRANCH   1   7
ATOM      7  O   UNL     1       6.756 -12.566 -45.015  1.00  0.00    -0.457 OA
BRANCH   7   8
ATOM      8  C   UNL     1       7.125 -12.892 -43.728  1.00  0.00     0.131 A 
ATOM      9  C   UNL     1       7.185 -14.588 -42.058  1.00  0.00     0.131 A 
ATOM     10  C   UNL     1       6.856 -14.203 -43.349  1.00  0.00     0.081 A 
ATOM     11  N   UNL     1       7.757 -13.759 -41.138  1.00  0.00    -0.251 NA
ATOM     12  C   UNL     1       7.994 -12.494 -41.539  1.00  0.00     0.116 A 
ATOM     13  C   UNL     1       7.696 -12.016 -42.805  1.00  0.00     0.067 A 
BRANCH   9  14
ATOM     14  C   UNL     1       6.891 -15.984 -41.600  1.00  0.00     0.269 C 
ATOM     15  N   UNL     1       6.464 -16.073 -40.291  1.00  0.00    -0.354 N 
ATOM     16  O   UNL     1       7.011 -16.944 -42.352  1.00  0.00    -0.268 OA
ATOM     17  C   UNL     1       5.988 -17.303 -39.719  1.00  0.00     0.143 C 
ATOM     18  H   UNL     1       6.303 -15.189 -39.817  1.00  0.00     0.163 HD
ENDBRANCH   9  14
ENDBRANCH   7   8
ENDBRANCH   1   7
BRANCH   4  19
ATOM     19  N   UNL     1       1.718 -10.270 -45.721  1.00  0.00    -0.308 N 
ATOM     20  C   UNL     1       0.886  -9.715 -44.757  1.00  0.00     0.323 C 
ATOM     21  O   UNL     1       1.172  -9.589 -43.573  1.00  0.00    -0.248 OA
ATOM     22  N   UNL     1      -0.319  -9.317 -45.324  1.00  0.00    -0.308 N 
ATOM     23  H   UNL     1       1.380 -10.265 -46.669  1.00  0.00     0.171 HD
ATOM     24  H   UNL     1      -0.438  -9.511 -46.307  1.00  0.00     0.171 HD
BRANCH  22  25
ATOM     25  C   UNL     1      -1.408  -8.691 -44.681  1.00  0.00     0.043 A 
ATOM     26  C   UNL     1      -1.464  -7.333 -44.374  1.00  0.00     0.028 A 
ATOM     27  C   UNL     1      -2.499  -9.501 -44.339  1.00  0.00     0.040 A 
ATOM     28  C   UNL     1      -2.587  -6.796 -43.738  1.00  0.00     0.023 A 
ATOM     29  C   UNL     1      -3.643  -8.972 -43.701  1.00  0.00     0.076 A 
ATOM     30  C   UNL     1      -3.672  -7.607 -43.405  1.00  0.00     0.053 A 
ATOM     31  Cl  UNL     1      -5.024  -6.859 -42.642  1.00  0.00    -0.084 Cl
BRANCH  29  32
ATOM     32  C   UNL     1      -4.808  -9.871 -43.384  1.00  0.00     0.417 C 
ATOM     33  F   UNL     1      -4.607 -11.160 -43.793  1.00  0.00    -0.166 F 
ATOM     34  F   UNL     1      -5.084  -9.959 -42.054  1.00  0.00    -0.166 F 
ATOM     35  F   UNL     1      -5.959  -9.477 -43.997  1.00  0.00    -0.166 F 
ENDBRANCH  29  32
ENDBRANCH  22  25
ENDBRANCH   4  19
TORSDOF 6
ENDMDL
MODEL 19
REMARK minimizedAffinity -8.50582218
REMARK minimizedRMSD -1
REMARK SMILES CNC(=O)c1cc(Oc2ccc(NC(=O)Nc3ccc(Cl)c(C(F)(F)F)c3)cc2)ccn1
REMARK SMILES IDX 9 1 10 2 11 3 12 4 28 5 29 6 8 7 7 8 5 9 6 10 32 11 31 12
REMARK SMILES IDX 30 13 3 14 2 15 4 16 1 17 13 19 14 20 15 21 16 22 17 25
REMARK SMILES IDX 18 26 27 27 19 28 22 29 20 30 21 31 23 32 24 33 25 34 26 35
REMARK H PARENT 2 18 13 23 16 24
ROOT
ATOM      1  C   UNL     1       5.849 -11.792 -45.203  1.00  0.00     0.127 A 
ATOM      2  C   UNL     1       5.445 -10.493 -45.499  1.00  0.00     0.049 A 
ATOM      3  C   UNL     1       4.083 -10.209 -45.625  1.00  0.00     0.030 A 
ATOM      4  C   UNL     1       3.121 -11.218 -45.468  1.00  0.00     0.043 A 
ATOM      5  C   UNL     1       3.550 -12.523 -45.202  1.00  0.00     0.030 A 
ATOM      6  C   UNL     1       4.912 -12.812 -45.077  1.00  0.00     0.049 A 
ENDROOT
BRANCH   1   7
ATOM      7  O   UNL     1       7.182 -12.097 -45.100  1.00  0.00    -0.457 OA
BRANCH   7   8
ATOM      8  C   UNL     1       7.725 -12.206 -43.837  1.00  0.00     0.131 A 
ATOM      9  C   UNL     1       9.284 -13.351 -42.448  1.00  0.00     0.131 A 
ATOM     10  C   UNL     1       8.712 -13.178 -43.699  1.00  0.00     0.081 A 
ATOM     11  N   UNL     1       8.938 -12.627 -41.345  1.00  0.00    -0.251 NA
ATOM     12  C   UNL     1       7.972 -11.703 -41.516  1.00  0.00     0.116 A 
ATOM     13  C   UNL     1       7.339 -11.459 -42.724  1.00  0.00     0.067 A 
BRANCH   9  14
ATOM     14  C   UNL     1      10.333 -14.403 -42.249  1.00  0.00     0.269 C 
ATOM     15  N   UNL     1      11.625 -13.955 -42.427  1.00  0.00    -0.354 N 
ATOM     16  O   UNL     1      10.038 -15.550 -41.936  1.00  0.00    -0.268 OA
ATOM     17  C   UNL     1      12.770 -14.773 -42.130  1.00  0.00     0.143 C 
ATOM     18  H   UNL     1      11.731 -12.955 -42.575  1.00  0.00     0.163 HD
ENDBRANCH   9  14
ENDBRANCH   7   8
ENDBRANCH   1   7
BRANCH   4  19
ATOM     19  N   UNL     1       1.767 -10.841 -45.599  1.00  0.00    -0.308 N 
ATOM     20  C   UNL     1       1.019 -10.053 -44.733  1.00  0.00     0.323 C 
ATOM     21  O   UNL     1       1.444  -9.549 -43.701  1.00  0.00    -0.248 OA
ATOM     22  N   UNL     1      -0.280  -9.910 -45.204  1.00  0.00    -0.308 N 
ATOM     23  H   UNL     1       1.310 -11.148 -46.441  1.00  0.00     0.171 HD
ATOM     24  H   UNL     1      -0.508 -10.406 -46.052  1.00  0.00     0.171 HD
BRANCH  22  25
ATOM     25  C   UNL     1      -1.331  -9.168 -44.622  1.00  0.00     0.043 A 
ATOM     26  C   UNL     1      -1.285  -7.795 -44.387  1.00  0.00     0.028 A 
ATOM     27  C   UNL     1      -2.489  -9.871 -44.266  1.00  0.00     0.040 A 
ATOM     28  C   UNL     1      -2.376  -7.139 -43.809  1.00  0.00     0.023 A 
ATOM     29  C   UNL     1      -3.601  -9.222 -43.685  1.00  0.00     0.076 A 
ATOM     30  C   UNL     1      -3.528  -7.844 -43.462  1.00  0.00     0.053 A 
ATOM     31  Cl  UNL     1      -4.833  -6.953 -42.773  1.00  0.00    -0.084 Cl
BRANCH  29  32
ATOM     32  C   UNL     1      -4.839 -10.009 -43.351  1.00  0.00     0.417 C 
ATOM     33  F   UNL     1      -5.132  -9.991 -42.016  1.00  0.00    -0.166 F 
ATOM     34  F   UNL     1      -5.962  -9.550 -43.968  1.00  0.00    -0.166 F 
ATOM     35  F   UNL     1      -4.726 -11.328 -43.674  1.00  0.00    -0.166 F 
ENDBRANCH  29  32
ENDBRANCH  22  25
ENDBRANCH   4  19
TORSDOF 6
ENDMDL
MODEL 20
REMARK minimizedAffinity -8.36946106
REMARK minimizedRMSD -1
REMARK SMILES CNC(=O)c1cc(Oc2ccc(NC(=O)Nc3ccc(Cl)c(C(F)(F)F)c3)cc2)ccn1
REMARK SMILES IDX 9 1 10 2 11 3 12 4 28 5 29 6 8 7 7 8 5 9 6 10 32 11 31 12
REMARK SMILES IDX 30 13 3 14 2 15 4 16 1 17 13 19 14 20 15 21 16 22 17 25
REMARK SMILES IDX 18 26 27 27 19 28 22 29 20 30 21 31 23 32 24 33 25 34 26 35
REMARK H PARENT 2 18 13 23 16 24
ROOT
ATOM      1  C   UNL     1       2.481 -14.636 -45.181  1.00  0.00     0.127 A 
ATOM      2  C   UNL     1       2.677 -13.286 -45.459  1.00  0.00     0.049 A 
ATOM      3  C   UNL     1       1.845 -12.334 -44.866  1.00  0.00     0.030 A 
ATOM      4  C   UNL     1       0.808 -12.723 -44.004  1.00  0.00     0.043 A 
ATOM      5  C   UNL     1       0.608 -14.086 -43.763  1.00  0.00     0.030 A 
ATOM      6  C   UNL     1       1.437 -15.043 -44.356  1.00  0.00     0.049 A 
ENDROOT
BRANCH   1   7
ATOM      7  O   UNL     1       3.270 -15.588 -45.772  1.00  0.00    -0.457 OA
BRANCH   7   8
ATOM      8  C   UNL     1       4.593 -15.662 -45.388  1.00  0.00     0.131 A 
ATOM      9  C   UNL     1       6.132 -16.423 -43.739  1.00  0.00     0.131 A 
ATOM     10  C   UNL     1       4.824 -16.332 -44.191  1.00  0.00     0.081 A 
ATOM     11  N   UNL     1       7.205 -15.896 -44.397  1.00  0.00    -0.251 NA
ATOM     12  C   UNL     1       6.939 -15.247 -45.548  1.00  0.00     0.116 A 
ATOM     13  C   UNL     1       5.667 -15.100 -46.078  1.00  0.00     0.067 A 
BRANCH   9  14
ATOM     14  C   UNL     1       6.425 -17.114 -42.442  1.00  0.00     0.269 C 
ATOM     15  N   UNL     1       6.023 -16.414 -41.323  1.00  0.00    -0.354 N 
ATOM     16  O   UNL     1       6.961 -18.215 -42.409  1.00  0.00    -0.268 OA
ATOM     17  C   UNL     1       6.077 -16.979 -40.002  1.00  0.00     0.143 C 
ATOM     18  H   UNL     1       5.491 -15.565 -41.499  1.00  0.00     0.163 HD
ENDBRANCH   9  14
ENDBRANCH   7   8
ENDBRANCH   1   7
BRANCH   4  19
ATOM     19  N   UNL     1       0.023 -11.695 -43.438  1.00  0.00    -0.308 N 
ATOM     20  C   UNL     1      -1.024 -11.003 -44.034  1.00  0.00     0.323 C 
ATOM     21  O   UNL     1      -1.436 -11.198 -45.170  1.00  0.00    -0.248 OA
ATOM     22  N   UNL     1      -1.545 -10.059 -43.157  1.00  0.00    -0.308 N 
ATOM     23  H   UNL     1       0.226 -11.472 -42.478  1.00  0.00     0.171 HD
ATOM     24  H   UNL     1      -1.089  -9.979 -42.261  1.00  0.00     0.171 HD
BRANCH  22  25
ATOM     25  C   UNL     1      -2.626  -9.180 -43.381  1.00  0.00     0.043 A 
ATOM     26  C   UNL     1      -3.958  -9.489 -43.111  1.00  0.00     0.028 A 
ATOM     27  C   UNL     1      -2.325  -7.917 -43.907  1.00  0.00     0.040 A 
ATOM     28  C   UNL     1      -4.967  -8.554 -43.360  1.00  0.00     0.023 A 
ATOM     29  C   UNL     1      -3.332  -6.960 -44.160  1.00  0.00     0.076 A 
ATOM     30  C   UNL     1      -4.659  -7.296 -43.878  1.00  0.00     0.053 A 
ATOM     31  Cl  UNL     1      -5.962  -6.198 -44.136  1.00  0.00    -0.084 Cl
BRANCH  29  32
ATOM     32  C   UNL     1      -2.960  -5.602 -44.691  1.00  0.00     0.417 C 
ATOM     33  F   UNL     1      -1.609  -5.434 -44.811  1.00  0.00    -0.166 F 
ATOM     34  F   UNL     1      -3.462  -5.343 -45.930  1.00  0.00    -0.166 F 
ATOM     35  F   UNL     1      -3.376  -4.588 -43.881  1.00  0.00    -0.166 F 
ENDBRANCH  29  32
ENDBRANCH  22  25
ENDBRANCH   4  19
TORSDOF 6
ENDMDL
