REMARK SMILES COc1cc2ncnc(Nc3cccc(Cl)c3F)c2cc1OC(=O)N1CCN(C)C[C@H]1C
REMARK SMILES IDX 3 1 4 2 5 3 6 4 7 5 8 6 9 7 19 8 20 9 21 10 2 11 1 12 22 13
REMARK SMILES IDX 23 14 24 15 25 16 26 17 31 18 27 19 30 20 28 21 32 22 29 23
REMARK SMILES IDX 10 24 11 26 12 27 17 28 13 29 15 30 14 31 18 32 16 33
REMARK H PARENT 10 25
ROOT
ATOM      1  C   UNL     1       0.102  -2.356   1.043  1.00  0.00     0.163 A 
ATOM      2  C   UNL     1      -1.058  -3.130   1.107  1.00  0.00     0.079 A 
ATOM      3  C   UNL     1      -2.320  -2.591   0.861  1.00  0.00     0.080 A 
ATOM      4  N   UNL     1      -3.378  -3.400   0.950  1.00  0.00    -0.236 NA
ATOM      5  C   UNL     1      -4.576  -2.853   0.718  1.00  0.00     0.224 A 
ATOM      6  N   UNL     1      -4.815  -1.578   0.399  1.00  0.00    -0.219 NA
ATOM      7  C   UNL     1      -3.745  -0.769   0.294  1.00  0.00     0.141 A 
ATOM      8  C   UNL     1      -2.436  -1.230   0.537  1.00  0.00     0.047 A 
ATOM      9  C   UNL     1      -1.272  -0.430   0.487  1.00  0.00     0.065 A 
ATOM     10  C   UNL     1      -0.026  -1.005   0.722  1.00  0.00     0.175 A 
ENDROOT
BRANCH   1  11
ATOM     11  O   UNL     1       1.372  -2.803   1.287  1.00  0.00    -0.493 OA
ATOM     12  C   UNL     1       1.547  -4.205   1.444  1.00  0.00     0.278 C 
ENDBRANCH   1  11
BRANCH  10  13
ATOM     13  O   UNL     1       1.105  -0.186   0.685  1.00  0.00    -0.406 OA
BRANCH  13  14
ATOM     14  C   UNL     1       1.698  -0.138  -0.573  1.00  0.00     0.415 C 
ATOM     15  O   UNL     1       1.221  -0.649  -1.583  1.00  0.00    -0.224 OA
BRANCH  14  16
ATOM     16  N   UNL     1       2.883   0.581  -0.569  1.00  0.00    -0.303 N 
ATOM     17  C   UNL     1       3.698   0.633  -1.775  1.00  0.00     0.139 C 
ATOM     18  C   UNL     1       3.511   1.099   0.659  1.00  0.00     0.099 C 
ATOM     19  C   UNL     1       5.084  -0.009  -1.552  1.00  0.00     0.106 C 
ATOM     20  C   UNL     1       5.033   1.365   0.468  1.00  0.00     0.109 C 
ATOM     21  N   UNL     1       5.689   0.247  -0.226  1.00  0.00    -0.303 NA
ATOM     22  C   UNL     1       2.822   2.381   1.133  1.00  0.00     0.032 C 
ATOM     23  C   UNL     1       7.132   0.429  -0.317  1.00  0.00     0.105 C 
ENDBRANCH  14  16
ENDBRANCH  13  14
ENDBRANCH  10  13
BRANCH   7  24
ATOM     24  N   UNL     1      -3.937   0.588  -0.076  1.00  0.00    -0.337 N 
ATOM     25  H   UNL     1      -3.332   0.812  -0.866  1.00  0.00     0.168 HD
BRANCH  24  26
ATOM     26  C   UNL     1      -5.152   1.309  -0.171  1.00  0.00     0.077 A 
ATOM     27  C   UNL     1      -6.245   1.071   0.672  1.00  0.00     0.029 A 
ATOM     28  C   UNL     1      -5.238   2.387  -1.067  1.00  0.00     0.165 A 
ATOM     29  C   UNL     1      -7.404   1.850   0.585  1.00  0.00     0.004 A 
ATOM     30  C   UNL     1      -6.390   3.168  -1.158  1.00  0.00     0.078 A 
ATOM     31  C   UNL     1      -7.480   2.897  -0.334  1.00  0.00     0.024 A 
ATOM     32  F   UNL     1      -4.179   2.651  -1.854  1.00  0.00    -0.203 F 
ATOM     33  Cl  UNL     1      -6.480   4.473  -2.278  1.00  0.00    -0.081 Cl
ENDBRANCH  24  26
ENDBRANCH   7  24
TORSDOF 6
