REMARK SMILES COc1cc2c(Oc3ccc4[nH]c(C)cc4c3F)ncnc2cc1OCCCN1CCCC1
REMARK SMILES IDX 25 1 24 2 3 3 4 4 5 5 23 6 6 7 22 8 19 9 21 10 20 11 2 12
REMARK SMILES IDX 1 13 7 14 8 15 9 16 17 17 10 18 16 19 11 20 15 21 12 22
REMARK SMILES IDX 13 23 18 24 14 26 26 27 27 28 28 29 29 30 30 31 33 32 31 33
REMARK SMILES IDX 32 34
REMARK H PARENT 12 25
ROOT
ATOM      1  O   UNL     1      -2.926   1.620   0.578  1.00  0.00    -0.490 OA
ENDROOT
BRANCH   1   2
ATOM      2  C   UNL     1      -1.684   1.047   0.687  1.00  0.00     0.163 A 
ATOM      3  C   UNL     1      -1.102   0.603  -0.511  1.00  0.00     0.161 A 
ATOM      4  C   UNL     1       0.164   0.019  -0.472  1.00  0.00     0.066 A 
ATOM      5  C   UNL     1       0.855  -0.117   0.757  1.00  0.00     0.067 A 
ATOM      6  C   UNL     1      -0.980   0.920   1.889  1.00  0.00     0.079 A 
ATOM      7  C   UNL     1       2.121  -0.688   0.908  1.00  0.00     0.230 A 
ATOM      8  C   UNL     1       0.280   0.340   1.945  1.00  0.00     0.081 A 
ATOM      9  N   UNL     1       2.758  -0.829   2.088  1.00  0.00    -0.201 NA
ATOM     10  N   UNL     1       0.896   0.236   3.130  1.00  0.00    -0.236 NA
ATOM     11  C   UNL     1       2.107  -0.340   3.144  1.00  0.00     0.226 A 
BRANCH   3  12
ATOM     12  O   UNL     1      -1.851   0.767  -1.648  1.00  0.00    -0.493 OA
ATOM     13  C   UNL     1      -1.267   0.384  -2.885  1.00  0.00     0.278 C 
ENDBRANCH   3  12
BRANCH   7  14
ATOM     14  O   UNL     1       2.726  -1.211  -0.233  1.00  0.00    -0.435 OA
BRANCH  14  15
ATOM     15  C   UNL     1       4.101  -1.204  -0.239  1.00  0.00     0.165 A 
ATOM     16  C   UNL     1       4.760  -2.430  -0.312  1.00  0.00     0.052 A 
ATOM     17  C   UNL     1       4.820  -0.002  -0.253  1.00  0.00     0.175 A 
ATOM     18  C   UNL     1       6.158  -2.489  -0.363  1.00  0.00     0.031 A 
ATOM     19  C   UNL     1       6.225  -0.035  -0.304  1.00  0.00     0.039 A 
ATOM     20  C   UNL     1       6.862  -1.276  -0.356  1.00  0.00     0.049 A 
ATOM     21  C   UNL     1       7.243   0.958  -0.324  1.00  0.00     0.034 A 
ATOM     22  N   UNL     1       8.216  -1.034  -0.398  1.00  0.00    -0.359 N 
ATOM     23  C   UNL     1       8.464   0.318  -0.382  1.00  0.00     0.013 A 
ATOM     24  F   UNL     1       4.172   1.173  -0.239  1.00  0.00    -0.202 F 
ATOM     25  H   UNL     1       8.925  -1.753  -0.434  1.00  0.00     0.166 HD
ATOM     26  C   UNL     1       9.844   0.860  -0.423  1.00  0.00     0.064 C 
ENDBRANCH  14  15
ENDBRANCH   7  14
ENDBRANCH   1   2
BRANCH   1  27
ATOM     27  C   UNL     1      -3.798   1.604   1.707  1.00  0.00     0.231 C 
BRANCH  27  28
ATOM     28  C   UNL     1      -4.348   0.216   2.022  1.00  0.00     0.057 C 
BRANCH  28  29
ATOM     29  C   UNL     1      -4.883  -0.593   0.832  1.00  0.00     0.088 C 
BRANCH  29  30
ATOM     30  N   UNL     1      -6.119  -0.060   0.245  1.00  0.00    -0.303 NA
ATOM     31  C   UNL     1      -5.876   0.941  -0.804  1.00  0.00     0.084 C 
ATOM     32  C   UNL     1      -6.872  -1.115  -0.445  1.00  0.00     0.084 C 
ATOM     33  C   UNL     1      -7.185   0.980  -1.584  1.00  0.00     0.017 C 
ATOM     34  C   UNL     1      -7.883  -0.334  -1.265  1.00  0.00     0.017 C 
ENDBRANCH  29  30
ENDBRANCH  28  29
ENDBRANCH  27  28
ENDBRANCH   1  27
TORSDOF 8
