REMARK SMILES C#Cc1cccc(Nc2ncnc3cc(OCCOC)c(OCCOC)cc23)c1
REMARK SMILES IDX 9 1 10 2 11 3 12 4 13 5 14 6 15 7 21 8 27 9 28 10 8 11 7 13
REMARK SMILES IDX 2 14 3 15 4 16 29 17 5 18 6 19 1 20 22 21 23 22 24 23 25 24
REMARK SMILES IDX 26 25 16 26 17 27 18 28 19 29 20 30
REMARK H PARENT 8 12
ROOT
ATOM      1  C   UNL     1       2.222  -0.667  -0.203  1.00  0.00     0.141 A 
ATOM      2  N   UNL     1       2.849  -1.763  -0.652  1.00  0.00    -0.219 NA
ATOM      3  C   UNL     1       2.259  -2.847  -1.174  1.00  0.00     0.224 A 
ATOM      4  N   UNL     1       0.919  -2.864  -1.266  1.00  0.00    -0.236 NA
ATOM      5  C   UNL     1       0.215  -1.806  -0.838  1.00  0.00     0.080 A 
ATOM      6  C   UNL     1      -1.170  -1.862  -0.949  1.00  0.00     0.079 A 
ATOM      7  C   UNL     1      -1.998  -0.845  -0.546  1.00  0.00     0.163 A 
ATOM      8  C   UNL     1      -1.340   0.277  -0.004  1.00  0.00     0.162 A 
ATOM      9  C   UNL     1       0.030   0.336   0.107  1.00  0.00     0.064 A 
ATOM     10  C   UNL     1       0.838  -0.676  -0.294  1.00  0.00     0.047 A 
ENDROOT
BRANCH   1  11
ATOM     11  N   UNL     1       2.883   0.462   0.344  1.00  0.00    -0.340 N 
ATOM     12  H   UNL     1       2.337   1.271   0.727  1.00  0.00     0.168 HD
BRANCH  11  13
ATOM     13  C   UNL     1       4.299   0.606   0.423  1.00  0.00     0.041 A 
ATOM     14  C   UNL     1       7.474  -0.682  -1.045  1.00  0.00    -0.070 C 
ATOM     15  C   UNL     1       6.553   0.087  -0.225  1.00  0.00     0.026 A 
ATOM     16  C   UNL     1       7.070   0.999   0.650  1.00  0.00     0.017 A 
ATOM     17  C   UNL     1       5.179  -0.119  -0.349  1.00  0.00     0.043 A 
ATOM     18  C   UNL     1       6.201   1.742   1.438  1.00  0.00     0.003 A 
ATOM     19  C   UNL     1       4.851   1.519   1.297  1.00  0.00     0.026 A 
ATOM     20  C   UNL     1       8.234  -1.323  -1.729  1.00  0.00     0.010 C 
ENDBRANCH  11  13
ENDBRANCH   1  11
BRANCH   8  21
ATOM     21  O   UNL     1      -2.110   1.349   0.425  1.00  0.00    -0.487 OA
BRANCH  21  22
ATOM     22  C   UNL     1      -1.474   2.483   0.969  1.00  0.00     0.258 C 
BRANCH  22  23
ATOM     23  C   UNL     1      -2.535   3.519   1.371  1.00  0.00     0.201 C 
BRANCH  23  24
ATOM     24  O   UNL     1      -3.240   3.856   0.215  1.00  0.00    -0.381 OA
ATOM     25  C   UNL     1      -4.210   4.784   0.526  1.00  0.00     0.195 C 
ENDBRANCH  23  24
ENDBRANCH  22  23
ENDBRANCH  21  22
ENDBRANCH   8  21
BRANCH   7  26
ATOM     26  O   UNL     1      -3.341  -0.793  -0.601  1.00  0.00    -0.487 OA
BRANCH  26  27
ATOM     27  C   UNL     1      -4.187  -1.803  -1.050  1.00  0.00     0.258 C 
BRANCH  27  28
ATOM     28  C   UNL     1      -4.191  -3.063  -0.235  1.00  0.00     0.201 C 
BRANCH  28  29
ATOM     29  O   UNL     1      -5.043  -4.021  -0.760  1.00  0.00    -0.381 OA
ATOM     30  C   UNL     1      -6.341  -3.562  -0.796  1.00  0.00     0.195 C 
ENDBRANCH  28  29
ENDBRANCH  27  28
ENDBRANCH  26  27
ENDBRANCH   7  26
TORSDOF 10
