REMARK SMILES COc1cc2c(Oc3ccc(NC(=O)C4(C(=O)Nc5ccc(F)cc5)CC4)cc3F)ccnc2cc1OCCCN1CCOCC1
REMARK SMILES IDX 7 1 6 2 3 3 4 4 36 5 5 6 35 7 34 8 31 9 33 10 32 11 2 12
REMARK SMILES IDX 1 13 37 14 38 15 39 16 40 17 41 18 42 19 46 20 43 21 45 22
REMARK SMILES IDX 44 23 8 24 9 25 29 26 10 27 28 28 11 29 30 30 12 31 13 32
REMARK SMILES IDX 14 33 15 35 26 36 27 37 16 38 17 39 18 40 19 42 20 43 25 44
REMARK SMILES IDX 21 45 24 46 22 47 23 48
REMARK H PARENT 12 34 18 41
ROOT
ATOM      1  O   UNL     1       0.432  -3.677  -1.312  1.00  0.00    -0.454 OA
ENDROOT
BRANCH   1   2
ATOM      2  C   UNL     1      -0.787  -3.793  -0.680  1.00  0.00     0.138 A 
ATOM      3  C   UNL     1      -3.077  -1.626  -2.725  1.00  0.00     0.161 A 
ATOM      4  C   UNL     1      -1.914  -2.266  -2.294  1.00  0.00     0.064 A 
ATOM      5  C   UNL     1      -4.274  -1.831  -2.019  1.00  0.00     0.163 A 
ATOM      6  C   UNL     1      -1.924  -3.112  -1.162  1.00  0.00     0.047 A 
ATOM      7  C   UNL     1      -4.275  -2.671  -0.901  1.00  0.00     0.079 A 
ATOM      8  C   UNL     1      -3.127  -3.321  -0.465  1.00  0.00     0.078 A 
ATOM      9  C   UNL     1      -0.882  -4.681   0.385  1.00  0.00     0.068 A 
ATOM     10  N   UNL     1      -3.214  -4.139   0.600  1.00  0.00    -0.256 NA
ATOM     11  C   UNL     1      -2.109  -4.808   0.994  1.00  0.00     0.115 A 
BRANCH   3  12
ATOM     12  O   UNL     1      -3.148  -0.793  -3.813  1.00  0.00    -0.493 OA
ATOM     13  C   UNL     1      -1.969  -0.608  -4.583  1.00  0.00     0.278 C 
ENDBRANCH   3  12
BRANCH   5  14
ATOM     14  O   UNL     1      -5.372  -1.175  -2.510  1.00  0.00    -0.490 OA
BRANCH  14  15
ATOM     15  C   UNL     1      -6.642  -1.340  -1.887  1.00  0.00     0.231 C 
BRANCH  15  16
ATOM     16  C   UNL     1      -6.841  -0.365  -0.724  1.00  0.00     0.057 C 
BRANCH  16  17
ATOM     17  C   UNL     1      -6.647   1.093  -1.169  1.00  0.00     0.088 C 
BRANCH  17  18
ATOM     18  N   UNL     1      -6.899   2.132  -0.164  1.00  0.00    -0.299 NA
ATOM     19  C   UNL     1      -8.308   2.223   0.258  1.00  0.00     0.113 C 
ATOM     20  C   UNL     1      -6.035   2.029   1.025  1.00  0.00     0.113 C 
ATOM     21  C   UNL     1      -8.507   3.397   1.230  1.00  0.00     0.175 C 
ATOM     22  C   UNL     1      -6.286   3.206   1.981  1.00  0.00     0.175 C 
ATOM     23  O   UNL     1      -7.662   3.266   2.383  1.00  0.00    -0.379 OA
ENDBRANCH  17  18
ENDBRANCH  16  17
ENDBRANCH  15  16
ENDBRANCH  14  15
ENDBRANCH   5  14
ENDBRANCH   1   2
BRANCH   1  24
ATOM     24  C   UNL     1       1.227  -2.612  -0.948  1.00  0.00     0.163 A 
ATOM     25  C   UNL     1       1.373  -2.150   0.359  1.00  0.00     0.052 A 
ATOM     26  C   UNL     1       1.976  -2.015  -1.961  1.00  0.00     0.167 A 
ATOM     27  C   UNL     1       2.256  -1.097   0.637  1.00  0.00     0.030 A 
ATOM     28  C   UNL     1       2.849  -0.964  -1.691  1.00  0.00     0.069 A 
ATOM     29  C   UNL     1       3.002  -0.500  -0.382  1.00  0.00     0.044 A 
ATOM     30  F   UNL     1       1.853  -2.437  -3.228  1.00  0.00    -0.203 F 
BRANCH  29  31
ATOM     31  N   UNL     1       3.913   0.553  -0.176  1.00  0.00    -0.325 N 
ATOM     32  C   UNL     1       4.298   1.105   1.028  1.00  0.00     0.240 C 
ATOM     33  O   UNL     1       3.953   0.778   2.154  1.00  0.00    -0.273 OA
ATOM     34  H   UNL     1       4.380   0.919  -1.000  1.00  0.00     0.169 HD
BRANCH  32  35
ATOM     35  C   UNL     1       5.300   2.208   0.875  1.00  0.00     0.128 C 
ATOM     36  C   UNL     1       5.095   3.489   1.685  1.00  0.00     0.028 C 
ATOM     37  C   UNL     1       4.827   3.504   0.214  1.00  0.00     0.028 C 
BRANCH  35  38
ATOM     38  C   UNL     1       6.710   1.763   0.631  1.00  0.00     0.240 C 
ATOM     39  O   UNL     1       7.154   1.814  -0.508  1.00  0.00    -0.274 OA
ATOM     40  N   UNL     1       7.344   1.322   1.774  1.00  0.00    -0.325 N 
ATOM     41  H   UNL     1       6.786   1.326   2.622  1.00  0.00     0.169 HD
BRANCH  40  42
ATOM     42  C   UNL     1       8.652   0.815   1.890  1.00  0.00     0.041 A 
ATOM     43  C   UNL     1       9.536   0.686   0.814  1.00  0.00     0.029 A 
ATOM     44  C   UNL     1       9.075   0.424   3.167  1.00  0.00     0.029 A 
ATOM     45  C   UNL     1      10.818   0.164   1.011  1.00  0.00     0.041 A 
ATOM     46  C   UNL     1      10.357  -0.095   3.364  1.00  0.00     0.041 A 
ATOM     47  C   UNL     1      11.217  -0.223   2.282  1.00  0.00     0.123 A 
ATOM     48  F   UNL     1      12.442  -0.731   2.468  1.00  0.00    -0.207 F 
ENDBRANCH  40  42
ENDBRANCH  35  38
ENDBRANCH  32  35
ENDBRANCH  29  31
ENDBRANCH   1  24
TORSDOF 12
