REMARK SMILES CS(=O)(=O)CCNCc1ccc(-c2ccc3ncnc(Nc4ccc(OCc5cccc(F)c5)c(Cl)c4)c3c2)o1
REMARK SMILES IDX 13 1 14 2 15 3 16 4 17 5 18 6 19 7 20 8 38 9 39 10 12 11
REMARK SMILES IDX 9 12 10 13 40 14 11 15 8 16 7 17 6 19 5 20 2 21 3 22 4 23
REMARK SMILES IDX 1 24 21 25 22 27 23 28 37 29 24 30 35 31 25 32 36 33 26 34
REMARK SMILES IDX 27 35 28 36 29 37 34 38 30 39 32 40 31 41 33 42
REMARK H PARENT 7 18 21 26
ROOT
ATOM      1  C   UNL     1       2.341  -0.938   1.096  1.00  0.00     0.018 A 
ATOM      2  C   UNL     1       2.874  -1.766   2.086  1.00  0.00     0.014 A 
ATOM      3  C   UNL     1       2.050  -2.320   3.075  1.00  0.00     0.030 A 
ATOM      4  C   UNL     1       0.686  -2.069   3.120  1.00  0.00     0.076 A 
ATOM      5  N   UNL     1      -0.039  -2.639   4.086  1.00  0.00    -0.236 NA
ATOM      6  C   UNL     1      -1.350  -2.381   4.083  1.00  0.00     0.224 A 
ATOM      7  N   UNL     1      -2.000  -1.600   3.216  1.00  0.00    -0.219 NA
ATOM      8  C   UNL     1      -1.261  -1.015   2.257  1.00  0.00     0.141 A 
ATOM      9  C   UNL     1       0.129  -1.229   2.147  1.00  0.00     0.044 A 
ATOM     10  C   UNL     1       0.966  -0.678   1.137  1.00  0.00     0.026 A 
ENDROOT
BRANCH   1  11
ATOM     11  C   UNL     1       3.180  -0.366   0.044  1.00  0.00     0.134 A 
ATOM     12  C   UNL     1       5.126  -0.027  -0.937  1.00  0.00     0.118 A 
ATOM     13  C   UNL     1       4.189   0.635  -1.702  1.00  0.00     0.047 A 
ATOM     14  O   UNL     1       4.520  -0.633   0.127  1.00  0.00    -0.460 OA
ATOM     15  C   UNL     1       2.940   0.417  -1.072  1.00  0.00     0.051 A 
BRANCH  12  16
ATOM     16  C   UNL     1       6.599  -0.195  -1.050  1.00  0.00     0.157 C 
BRANCH  16  17
ATOM     17  N   UNL     1       7.282   0.885  -0.324  1.00  0.00    -0.309 NA
ATOM     18  H   UNL     1       6.952   0.868   0.647  1.00  0.00     0.123 HD
BRANCH  17  19
ATOM     19  C   UNL     1       8.739   0.744  -0.385  1.00  0.00     0.097 C 
BRANCH  19  20
ATOM     20  C   UNL     1       9.372   1.934  -1.096  1.00  0.00     0.152 C 
BRANCH  20  21
ATOM     21  S   UNL     1      10.089   1.508  -2.676  1.00  0.00     0.148 S 
ATOM     22  O   UNL     1       9.155   0.669  -3.407  1.00  0.00    -0.229 OA
ATOM     23  O   UNL     1      10.601   2.730  -3.268  1.00  0.00    -0.229 OA
ATOM     24  C   UNL     1      11.502   0.513  -2.255  1.00  0.00     0.158 C 
ENDBRANCH  20  21
ENDBRANCH  19  20
ENDBRANCH  17  19
ENDBRANCH  16  17
ENDBRANCH  12  16
ENDBRANCH   1  11
BRANCH   8  25
ATOM     25  N   UNL     1      -1.888  -0.128   1.338  1.00  0.00    -0.340 N 
ATOM     26  H   UNL     1      -1.425   0.773   1.401  1.00  0.00     0.168 HD
BRANCH  25  27
ATOM     27  C   UNL     1      -3.264   0.015   1.054  1.00  0.00     0.041 A 
ATOM     28  C   UNL     1      -4.179  -1.035   1.188  1.00  0.00     0.030 A 
ATOM     29  C   UNL     1      -3.718   1.208   0.475  1.00  0.00     0.050 A 
ATOM     30  C   UNL     1      -5.523  -0.889   0.814  1.00  0.00     0.050 A 
ATOM     31  C   UNL     1      -5.058   1.360   0.097  1.00  0.00     0.085 A 
ATOM     32  C   UNL     1      -5.976   0.311   0.263  1.00  0.00     0.138 A 
ATOM     33  Cl  UNL     1      -5.535   2.878  -0.590  1.00  0.00    -0.080 Cl
BRANCH  32  34
ATOM     34  O   UNL     1      -7.263   0.549  -0.138  1.00  0.00    -0.487 OA
BRANCH  34  35
ATOM     35  C   UNL     1      -8.180  -0.542  -0.120  1.00  0.00     0.265 C 
BRANCH  35  36
ATOM     36  C   UNL     1      -9.513  -0.085  -0.668  1.00  0.00    -0.008 A 
ATOM     37  C   UNL     1     -10.071   1.143  -0.274  1.00  0.00     0.007 A 
ATOM     38  C   UNL     1     -10.240  -0.905  -1.542  1.00  0.00     0.046 A 
ATOM     39  C   UNL     1     -11.318   1.552  -0.757  1.00  0.00     0.003 A 
ATOM     40  C   UNL     1     -11.480  -0.488  -2.016  1.00  0.00     0.123 A 
ATOM     41  C   UNL     1     -12.024   0.732  -1.633  1.00  0.00     0.039 A 
ATOM     42  F   UNL     1     -12.165  -1.283  -2.850  1.00  0.00    -0.207 F 
ENDBRANCH  35  36
ENDBRANCH  34  35
ENDBRANCH  32  34
ENDBRANCH  25  27
ENDBRANCH   8  25
TORSDOF 11
