REMARK SMILES CC1(C)CNc2cc(NC(=O)c3cccnc3NCc3ccncc3)ccc21
REMARK SMILES IDX 12 1 13 2 14 3 15 4 16 5 17 6 10 7 9 8 11 9 8 11 2 12 4 13
REMARK SMILES IDX 28 14 5 15 27 16 6 17 26 18 7 19 1 20 3 21 18 23 19 25 20 26
REMARK SMILES IDX 21 27 25 28 22 29 24 30 23 31
REMARK H PARENT 9 10 5 22 18 24
ROOT
ATOM      1  C   UNL     1       1.633  -2.054  -0.738  1.00  0.00     0.082 A 
ATOM      2  C   UNL     1       1.420  -3.416  -0.484  1.00  0.00     0.019 A 
ATOM      3  C   UNL     1       2.515  -4.261  -0.374  1.00  0.00     0.021 A 
ATOM      4  C   UNL     1       3.773  -3.712  -0.530  1.00  0.00     0.113 A 
ATOM      5  N   UNL     1       4.001  -2.404  -0.787  1.00  0.00    -0.239 NA
ATOM      6  C   UNL     1       2.940  -1.570  -0.901  1.00  0.00     0.139 A 
ENDROOT
BRANCH   1   7
ATOM      7  C   UNL     1       0.472  -1.147  -0.899  1.00  0.00     0.259 C 
ATOM      8  N   UNL     1      -0.468  -1.237   0.111  1.00  0.00    -0.322 N 
ATOM      9  O   UNL     1       0.445  -0.421  -1.887  1.00  0.00    -0.269 OA
ATOM     10  H   UNL     1      -0.241  -1.836   0.894  1.00  0.00     0.170 HD
BRANCH   8  11
ATOM     11  C   UNL     1      -1.684  -0.527   0.216  1.00  0.00     0.043 A 
ATOM     12  C   UNL     1      -5.350   1.635   0.568  1.00  0.00     0.009 C 
ATOM     13  C   UNL     1      -5.314   2.082  -0.923  1.00  0.00     0.124 C 
ATOM     14  C   UNL     1      -4.117   0.775   0.603  1.00  0.00    -0.017 A 
ATOM     15  N   UNL     1      -3.916   2.010  -1.381  1.00  0.00    -0.384 N 
ATOM     16  C   UNL     1      -3.685  -0.119   1.568  1.00  0.00     0.008 A 
ATOM     17  C   UNL     1      -3.360   1.009  -0.545  1.00  0.00     0.040 A 
ATOM     18  C   UNL     1      -2.467  -0.774   1.364  1.00  0.00     0.026 A 
ATOM     19  C   UNL     1      -2.136   0.388  -0.740  1.00  0.00     0.052 A 
ATOM     20  C   UNL     1      -5.199   2.835   1.511  1.00  0.00     0.018 C 
ATOM     21  C   UNL     1      -6.632   0.863   0.883  1.00  0.00     0.018 C 
ATOM     22  H   UNL     1      -3.790   1.781  -2.364  1.00  0.00     0.160 HD
ENDBRANCH   8  11
ENDBRANCH   1   7
BRANCH   6  23
ATOM     23  N   UNL     1       3.160  -0.195  -1.089  1.00  0.00    -0.365 N 
ATOM     24  H   UNL     1       2.484   0.148  -1.777  1.00  0.00     0.162 HD
BRANCH  23  25
ATOM     25  C   UNL     1       4.518   0.227  -1.388  1.00  0.00     0.150 C 
BRANCH  25  26
ATOM     26  C   UNL     1       5.282   0.520  -0.121  1.00  0.00    -0.026 A 
ATOM     27  C   UNL     1       6.366  -0.272   0.264  1.00  0.00     0.025 A 
ATOM     28  C   UNL     1       4.916   1.587   0.706  1.00  0.00     0.025 A 
ATOM     29  C   UNL     1       7.035   0.038   1.438  1.00  0.00     0.111 A 
ATOM     30  C   UNL     1       5.648   1.817   1.860  1.00  0.00     0.111 A 
ATOM     31  N   UNL     1       6.707   1.071   2.243  1.00  0.00    -0.265 NA
ENDBRANCH  25  26
ENDBRANCH  23  25
ENDBRANCH   6  23
TORSDOF 5
