REMARK SMILES CNC(=O)c1cc(Oc2ccc(NC(=O)Nc3ccc(Cl)c(C(F)(F)F)c3)cc2)ccn1
REMARK SMILES IDX 9 1 10 2 11 3 12 4 28 5 29 6 8 7 7 8 5 9 6 10 32 11 31 12
REMARK SMILES IDX 30 13 3 14 2 15 4 16 1 17 13 19 14 20 15 21 16 22 17 25
REMARK SMILES IDX 18 26 27 27 19 28 22 29 20 30 21 31 23 32 24 33 25 34 26 35
REMARK H PARENT 2 18 13 23 16 24
ROOT
ATOM      1  C   UNL     1       1.942  -1.327   0.337  1.00  0.00     0.127 A 
ATOM      2  C   UNL     1       1.360  -1.607  -0.897  1.00  0.00     0.049 A 
ATOM      3  C   UNL     1      -0.014  -1.424  -1.066  1.00  0.00     0.030 A 
ATOM      4  C   UNL     1      -0.815  -0.974  -0.005  1.00  0.00     0.043 A 
ATOM      5  C   UNL     1      -0.216  -0.729   1.235  1.00  0.00     0.030 A 
ATOM      6  C   UNL     1       1.159  -0.912   1.409  1.00  0.00     0.049 A 
ENDROOT
BRANCH   1   7
ATOM      7  O   UNL     1       3.285  -1.523   0.531  1.00  0.00    -0.457 OA
BRANCH   7   8
ATOM      8  C   UNL     1       4.151  -0.537   0.108  1.00  0.00     0.131 A 
ATOM      9  C   UNL     1       6.423   0.077  -0.252  1.00  0.00     0.131 A 
ATOM     10  C   UNL     1       5.499  -0.879   0.142  1.00  0.00     0.081 A 
ATOM     11  N   UNL     1       6.090   1.332  -0.671  1.00  0.00    -0.251 NA
ATOM     12  C   UNL     1       4.775   1.629  -0.681  1.00  0.00     0.116 A 
ATOM     13  C   UNL     1       3.779   0.743  -0.302  1.00  0.00     0.067 A 
BRANCH   9  14
ATOM     14  C   UNL     1       7.887  -0.240  -0.208  1.00  0.00     0.269 C 
ATOM     15  N   UNL     1       8.700   0.771  -0.676  1.00  0.00    -0.354 N 
ATOM     16  O   UNL     1       8.298  -1.308   0.229  1.00  0.00    -0.268 OA
ATOM     17  C   UNL     1      10.133   0.716  -0.571  1.00  0.00     0.143 C 
ATOM     18  H   UNL     1       8.234   1.645  -0.904  1.00  0.00     0.163 HD
ENDBRANCH   9  14
ENDBRANCH   7   8
ENDBRANCH   1   7
BRANCH   4  19
ATOM     19  N   UNL     1      -2.192  -0.805  -0.267  1.00  0.00    -0.308 N 
ATOM     20  C   UNL     1      -3.165  -0.316   0.596  1.00  0.00     0.323 C 
ATOM     21  O   UNL     1      -2.959   0.059   1.743  1.00  0.00    -0.248 OA
ATOM     22  N   UNL     1      -4.407  -0.306  -0.027  1.00  0.00    -0.308 N 
ATOM     23  H   UNL     1      -2.487  -1.028  -1.203  1.00  0.00     0.171 HD
ATOM     24  H   UNL     1      -4.442  -0.674  -0.965  1.00  0.00     0.171 HD
BRANCH  22  25
ATOM     25  C   UNL     1      -5.635   0.140   0.508  1.00  0.00     0.043 A 
ATOM     26  C   UNL     1      -5.790   0.658   1.792  1.00  0.00     0.028 A 
ATOM     27  C   UNL     1      -6.762   0.053  -0.320  1.00  0.00     0.040 A 
ATOM     28  C   UNL     1      -7.045   1.081   2.239  1.00  0.00     0.023 A 
ATOM     29  C   UNL     1      -8.036   0.480   0.115  1.00  0.00     0.076 A 
ATOM     30  C   UNL     1      -8.162   0.996   1.407  1.00  0.00     0.053 A 
ATOM     31  Cl  UNL     1      -9.667   1.559   2.031  1.00  0.00    -0.084 Cl
BRANCH  29  32
ATOM     32  C   UNL     1      -9.213   0.402  -0.820  1.00  0.00     0.417 C 
ATOM     33  F   UNL     1      -8.905  -0.201  -2.007  1.00  0.00    -0.166 F 
ATOM     34  F   UNL     1     -10.261  -0.309  -0.321  1.00  0.00    -0.166 F 
ATOM     35  F   UNL     1      -9.698   1.630  -1.158  1.00  0.00    -0.166 F 
ENDBRANCH  29  32
ENDBRANCH  22  25
ENDBRANCH   4  19
TORSDOF 6
