REMARK SMILES CCCS(=O)(=O)Nc1ccc(F)c(C(=O)c2c[nH]c3ncc(Cl)cc23)c1F
REMARK SMILES IDX 7 1 4 3 5 4 6 5 3 6 2 7 1 8 8 9 9 10 26 11 10 12 13 13 11 14
REMARK SMILES IDX 27 15 12 16 14 17 15 18 16 19 17 20 25 21 18 22 24 23 19 24
REMARK SMILES IDX 22 25 20 26 21 27 23 29
REMARK H PARENT 7 2 18 28
ROOT
ATOM      1  N   UNL     1      -2.188  -0.754   1.018  1.00  0.00    -0.281 N 
ATOM      2  H   UNL     1      -1.869  -0.863   1.988  1.00  0.00     0.180 HD
ENDROOT
BRANCH   1   3
ATOM      3  S   UNL     1      -2.726   0.854   0.860  1.00  0.00     0.232 S 
ATOM      4  O   UNL     1      -1.940   1.525  -0.153  1.00  0.00    -0.207 OA
ATOM      5  O   UNL     1      -2.815   1.370   2.208  1.00  0.00    -0.207 OA
BRANCH   3   6
ATOM      6  C   UNL     1      -4.386   0.620   0.234  1.00  0.00     0.159 C 
BRANCH   6   7
ATOM      7  C   UNL     1      -5.262  -0.217   1.157  1.00  0.00     0.015 C 
ATOM      8  C   UNL     1      -6.671  -0.354   0.604  1.00  0.00     0.005 C 
ENDBRANCH   6   7
ENDBRANCH   3   6
ENDBRANCH   1   3
BRANCH   1   9
ATOM      9  C   UNL     1      -1.211  -1.162   0.053  1.00  0.00     0.085 A 
ATOM     10  C   UNL     1      -1.630  -1.671  -1.178  1.00  0.00     0.033 A 
ATOM     11  C   UNL     1       0.147  -0.923   0.288  1.00  0.00     0.161 A 
ATOM     12  C   UNL     1      -0.683  -1.964  -2.163  1.00  0.00     0.042 A 
ATOM     13  C   UNL     1       1.083  -1.192  -0.702  1.00  0.00     0.096 A 
ATOM     14  C   UNL     1       0.669  -1.721  -1.920  1.00  0.00     0.137 A 
ATOM     15  F   UNL     1       0.527  -0.425   1.475  1.00  0.00    -0.204 F 
ATOM     16  F   UNL     1       1.553  -1.980  -2.892  1.00  0.00    -0.206 F 
BRANCH  13  17
ATOM     17  C   UNL     1       2.502  -0.933  -0.467  1.00  0.00     0.201 C 
ATOM     18  O   UNL     1       3.252  -1.901  -0.372  1.00  0.00    -0.288 OA
BRANCH  17  19
ATOM     19  C   UNL     1       2.960   0.450  -0.359  1.00  0.00     0.050 A 
ATOM     20  C   UNL     1       2.198   1.600  -0.525  1.00  0.00     0.097 A 
ATOM     21  C   UNL     1       4.295   0.890  -0.070  1.00  0.00     0.031 A 
ATOM     22  N   UNL     1       3.008   2.692  -0.334  1.00  0.00    -0.345 N 
ATOM     23  C   UNL     1       5.528   0.260   0.192  1.00  0.00     0.035 A 
ATOM     24  C   UNL     1       4.281   2.281  -0.063  1.00  0.00     0.138 A 
ATOM     25  C   UNL     1       6.631   1.076   0.435  1.00  0.00     0.060 A 
ATOM     26  N   UNL     1       5.312   3.116   0.164  1.00  0.00    -0.237 NA
ATOM     27  C   UNL     1       6.472   2.457   0.410  1.00  0.00     0.134 A 
ATOM     28  H   UNL     1       2.730   3.662  -0.382  1.00  0.00     0.167 HD
ATOM     29  Cl  UNL     1       8.168   0.379   0.761  1.00  0.00    -0.083 Cl
ENDBRANCH  17  19
ENDBRANCH  13  17
ENDBRANCH   1   9
TORSDOF 6
