REMARK SMILES CN(C)CCOc1ccc(-c2nc(-c3ccncc3)c(-c3ccc4c(c3)CC/C4=N\O)[nH]2)cc1
REMARK SMILES IDX 7 1 8 2 9 3 10 4 33 5 34 6 6 7 5 8 4 9 2 10 1 11 3 12 11 13
REMARK SMILES IDX 12 14 32 15 13 16 20 17 14 19 15 20 19 21 16 22 18 23 17 24
REMARK SMILES IDX 21 25 22 26 26 27 23 28 25 29 24 30 27 31 29 32 28 33 30 34
REMARK SMILES IDX 31 35
REMARK H PARENT 32 18 31 36
ROOT
ATOM      1  C   UNL     1       4.203   0.015  -0.403  1.00  0.00     0.119 A 
ATOM      2  C   UNL     1       3.696   1.300  -0.579  1.00  0.00     0.047 A 
ATOM      3  C   UNL     1       2.311   1.514  -0.573  1.00  0.00     0.016 A 
ATOM      4  C   UNL     1       1.408   0.455  -0.392  1.00  0.00     0.017 A 
ATOM      5  C   UNL     1       1.930  -0.832  -0.214  1.00  0.00     0.016 A 
ATOM      6  C   UNL     1       3.314  -1.045  -0.221  1.00  0.00     0.047 A 
ENDROOT
BRANCH   1   7
ATOM      7  O   UNL     1       5.523  -0.337  -0.389  1.00  0.00    -0.492 OA
BRANCH   7   8
ATOM      8  C   UNL     1       6.480   0.715  -0.552  1.00  0.00     0.245 C 
BRANCH   8   9
ATOM      9  C   UNL     1       7.903   0.125  -0.502  1.00  0.00     0.125 C 
BRANCH   9  10
ATOM     10  N   UNL     1       8.472  -0.013   0.858  1.00  0.00    -0.306 NA
ATOM     11  C   UNL     1       7.697  -0.942   1.684  1.00  0.00     0.105 C 
ATOM     12  C   UNL     1       9.862  -0.468   0.772  1.00  0.00     0.105 C 
ENDBRANCH   9  10
ENDBRANCH   8   9
ENDBRANCH   7   8
ENDBRANCH   1   7
BRANCH   4  13
ATOM     13  C   UNL     1      -0.032   0.738  -0.396  1.00  0.00     0.138 A 
ATOM     14  N   UNL     1      -0.585   1.931  -0.507  1.00  0.00    -0.228 NA
ATOM     15  N   UNL     1      -1.019  -0.211  -0.280  1.00  0.00    -0.337 N 
ATOM     16  C   UNL     1      -1.950   1.744  -0.471  1.00  0.00     0.097 A 
ATOM     17  C   UNL     1      -2.253   0.401  -0.310  1.00  0.00     0.074 A 
ATOM     18  H   UNL     1      -0.869  -1.200  -0.152  1.00  0.00     0.168 HD
BRANCH  16  19
ATOM     19  C   UNL     1      -2.873   2.862  -0.573  1.00  0.00     0.005 A 
ATOM     20  C   UNL     1      -4.100   2.758  -1.230  1.00  0.00     0.030 A 
ATOM     21  C   UNL     1      -2.511   4.093  -0.023  1.00  0.00     0.030 A 
ATOM     22  C   UNL     1      -4.917   3.876  -1.282  1.00  0.00     0.111 A 
ATOM     23  C   UNL     1      -3.396   5.153  -0.129  1.00  0.00     0.111 A 
ATOM     24  N   UNL     1      -4.596   5.070  -0.741  1.00  0.00    -0.265 NA
ENDBRANCH  16  19
BRANCH  17  25
ATOM     25  C   UNL     1      -3.491  -0.346  -0.129  1.00  0.00     0.001 A 
ATOM     26  C   UNL     1      -4.388   0.012   0.899  1.00  0.00     0.011 A 
ATOM     27  C   UNL     1      -3.790  -1.430  -0.974  1.00  0.00     0.014 A 
ATOM     28  C   UNL     1      -5.578  -0.693   1.091  1.00  0.00     0.011 A 
ATOM     29  C   UNL     1      -4.974  -2.127  -0.778  1.00  0.00    -0.038 A 
ATOM     30  C   UNL     1      -5.840  -1.751   0.241  1.00  0.00     0.003 A 
ATOM     31  C   UNL     1      -5.484  -3.293  -1.564  1.00  0.00     0.043 C 
ATOM     32  C   UNL     1      -6.988  -2.641   0.216  1.00  0.00     0.087 C 
ATOM     33  C   UNL     1      -6.825  -3.645  -0.901  1.00  0.00     0.065 C 
ATOM     34  N   UNL     1      -7.977  -2.550   1.046  1.00  0.00    -0.093 NA
BRANCH  34  35
ATOM     35  O   UNL     1      -8.932  -3.537   0.781  1.00  0.00    -0.411 OA
ATOM     36  H   UNL     1      -9.611  -3.357   1.458  1.00  0.00     0.330 HD
ENDBRANCH  34  35
ENDBRANCH  17  25
ENDBRANCH   4  13
TORSDOF 8
