MODEL 1
REMARK minimizedAffinity -8.3903141
REMARK minimizedRMSD -1
REMARK SMILES CNC(=O)c1ccccc1Sc1ccc2c(/C=C/c3ccccn3)n[nH]c2c1
REMARK SMILES IDX 11 1 10 2 5 3 6 4 7 5 9 6 8 7 3 8 2 9 4 10 1 11 12 13 13 14
REMARK SMILES IDX 28 15 14 16 27 17 15 18 26 19 16 20 25 21 17 23 18 24 19 25
REMARK SMILES IDX 20 26 24 27 21 28 23 29 22 30
REMARK H PARENT 2 12 26 22
ROOT
ATOM      1  S   UNL     1      24.684   3.814  49.542  1.00  0.00    -0.089 SA
ENDROOT
BRANCH   1   2
ATOM      2  C   UNL     1      25.268   3.166  51.107  1.00  0.00     0.025 A 
ATOM      3  C   UNL     1      24.508   3.160  52.290  1.00  0.00     0.053 A 
ATOM      4  C   UNL     1      25.025   2.573  53.456  1.00  0.00     0.015 A 
ATOM      5  C   UNL     1      26.305   2.019  53.462  1.00  0.00     0.001 A 
ATOM      6  C   UNL     1      26.557   2.608  51.133  1.00  0.00     0.016 A 
ATOM      7  C   UNL     1      27.072   2.042  52.300  1.00  0.00     0.001 A 
BRANCH   3   8
ATOM      8  C   UNL     1      23.139   3.720  52.396  1.00  0.00     0.252 C 
ATOM      9  N   UNL     1      22.103   2.852  52.133  1.00  0.00    -0.355 N 
ATOM     10  O   UNL     1      22.988   4.904  52.679  1.00  0.00    -0.269 OA
ATOM     11  C   UNL     1      20.731   3.250  52.306  1.00  0.00     0.143 C 
ATOM     12  H   UNL     1      22.310   1.863  52.050  1.00  0.00     0.163 HD
ENDBRANCH   3   8
ENDBRANCH   1   2
BRANCH   1  13
ATOM     13  C   UNL     1      25.644   5.320  49.438  1.00  0.00     0.014 A 
ATOM     14  C   UNL     1      26.754   5.363  48.587  1.00  0.00     0.016 A 
ATOM     15  C   UNL     1      25.303   6.436  50.214  1.00  0.00     0.043 A 
ATOM     16  C   UNL     1      27.537   6.522  48.476  1.00  0.00     0.014 A 
ATOM     17  C   UNL     1      26.093   7.583  50.079  1.00  0.00     0.067 A 
ATOM     18  C   UNL     1      27.194   7.658  49.236  1.00  0.00     0.027 A 
ATOM     19  N   UNL     1      26.009   8.811  50.673  1.00  0.00    -0.277 N 
ATOM     20  C   UNL     1      27.699   8.984  49.407  1.00  0.00     0.093 A 
ATOM     21  N   UNL     1      26.959   9.676  50.286  1.00  0.00    -0.175 NA
ATOM     22  H   UNL     1      25.322   9.124  51.349  1.00  0.00     0.190 HD
BRANCH  20  23
ATOM     23  C   UNL     1      28.843   9.520  48.725  1.00  0.00     0.033 C 
ATOM     24  C   UNL     1      30.110   9.116  48.923  1.00  0.00     0.030 C 
BRANCH  24  25
ATOM     25  C   UNL     1      31.293   9.645  48.238  1.00  0.00     0.063 A 
ATOM     26  C   UNL     1      31.443  10.989  47.905  1.00  0.00     0.028 A 
ATOM     27  N   UNL     1      32.261   8.729  48.002  1.00  0.00    -0.257 NA
ATOM     28  C   UNL     1      32.623  11.404  47.289  1.00  0.00     0.004 A 
ATOM     29  C   UNL     1      33.393   9.158  47.401  1.00  0.00     0.111 A 
ATOM     30  C   UNL     1      33.618  10.471  47.028  1.00  0.00     0.020 A 
ENDBRANCH  24  25
ENDBRANCH  20  23
ENDBRANCH   1  13
TORSDOF 5
ENDMDL
MODEL 2
REMARK minimizedAffinity -8.37554741
REMARK minimizedRMSD -1
REMARK SMILES CNC(=O)c1ccccc1Sc1ccc2c(/C=C/c3ccccn3)n[nH]c2c1
REMARK SMILES IDX 11 1 10 2 5 3 6 4 7 5 9 6 8 7 3 8 2 9 4 10 1 11 12 13 13 14
REMARK SMILES IDX 28 15 14 16 27 17 15 18 26 19 16 20 25 21 17 23 18 24 19 25
REMARK SMILES IDX 20 26 24 27 21 28 23 29 22 30
REMARK H PARENT 2 12 26 22
ROOT
ATOM      1  S   UNL     1      21.697   5.720  51.403  1.00  0.00    -0.089 SA
ENDROOT
BRANCH   1   2
ATOM      2  C   UNL     1      22.976   6.349  50.317  1.00  0.00     0.025 A 
ATOM      3  C   UNL     1      23.240   5.840  49.033  1.00  0.00     0.053 A 
ATOM      4  C   UNL     1      24.222   6.437  48.226  1.00  0.00     0.015 A 
ATOM      5  C   UNL     1      24.964   7.518  48.699  1.00  0.00     0.001 A 
ATOM      6  C   UNL     1      23.737   7.434  50.779  1.00  0.00     0.016 A 
ATOM      7  C   UNL     1      24.725   8.012  49.979  1.00  0.00     0.001 A 
BRANCH   3   8
ATOM      8  C   UNL     1      22.511   4.696  48.432  1.00  0.00     0.252 C 
ATOM      9  N   UNL     1      23.130   3.469  48.513  1.00  0.00    -0.355 N 
ATOM     10  O   UNL     1      21.433   4.887  47.881  1.00  0.00    -0.269 OA
ATOM     11  C   UNL     1      22.475   2.269  48.062  1.00  0.00     0.143 C 
ATOM     12  H   UNL     1      23.945   3.376  49.109  1.00  0.00     0.163 HD
ENDBRANCH   3   8
ENDBRANCH   1   2
BRANCH   1  13
ATOM     13  C   UNL     1      22.428   4.163  51.895  1.00  0.00     0.014 A 
ATOM     14  C   UNL     1      23.801   4.107  52.154  1.00  0.00     0.016 A 
ATOM     15  C   UNL     1      21.639   3.009  51.999  1.00  0.00     0.043 A 
ATOM     16  C   UNL     1      24.417   2.906  52.540  1.00  0.00     0.014 A 
ATOM     17  C   UNL     1      22.274   1.827  52.395  1.00  0.00     0.067 A 
ATOM     18  C   UNL     1      23.633   1.743  52.668  1.00  0.00     0.027 A 
ATOM     19  N   UNL     1      21.786   0.566  52.601  1.00  0.00    -0.277 N 
ATOM     20  C   UNL     1      23.853   0.376  53.028  1.00  0.00     0.093 A 
ATOM     21  N   UNL     1      22.711  -0.326  52.986  1.00  0.00    -0.175 NA
ATOM     22  H   UNL     1      20.828   0.251  52.500  1.00  0.00     0.190 HD
BRANCH  20  23
ATOM     23  C   UNL     1      25.124  -0.179  53.397  1.00  0.00     0.033 C 
ATOM     24  C   UNL     1      26.177  -0.297  52.569  1.00  0.00     0.030 C 
BRANCH  24  25
ATOM     25  C   UNL     1      27.484  -0.858  52.924  1.00  0.00     0.063 A 
ATOM     26  C   UNL     1      28.549  -0.082  53.375  1.00  0.00     0.028 A 
ATOM     27  N   UNL     1      27.559  -2.206  52.833  1.00  0.00    -0.257 NA
ATOM     28  C   UNL     1      29.741  -0.712  53.727  1.00  0.00     0.004 A 
ATOM     29  C   UNL     1      28.728  -2.791  53.178  1.00  0.00     0.111 A 
ATOM     30  C   UNL     1      29.837  -2.094  53.624  1.00  0.00     0.020 A 
ENDBRANCH  24  25
ENDBRANCH  20  23
ENDBRANCH   1  13
TORSDOF 5
ENDMDL
MODEL 3
REMARK minimizedAffinity -8.37542439
REMARK minimizedRMSD -1
REMARK SMILES CNC(=O)c1ccccc1Sc1ccc2c(/C=C/c3ccccn3)n[nH]c2c1
REMARK SMILES IDX 11 1 10 2 5 3 6 4 7 5 9 6 8 7 3 8 2 9 4 10 1 11 12 13 13 14
REMARK SMILES IDX 28 15 14 16 27 17 15 18 26 19 16 20 25 21 17 23 18 24 19 25
REMARK SMILES IDX 20 26 24 27 21 28 23 29 22 30
REMARK H PARENT 2 12 26 22
ROOT
ATOM      1  S   UNL     1      23.560   5.122  50.536  1.00  0.00    -0.089 SA
ENDROOT
BRANCH   1   2
ATOM      2  C   UNL     1      22.939   3.739  49.580  1.00  0.00     0.025 A 
ATOM      3  C   UNL     1      22.693   2.460  50.111  1.00  0.00     0.053 A 
ATOM      4  C   UNL     1      22.146   1.453  49.300  1.00  0.00     0.015 A 
ATOM      5  C   UNL     1      21.870   1.700  47.956  1.00  0.00     0.001 A 
ATOM      6  C   UNL     1      22.659   3.968  48.223  1.00  0.00     0.016 A 
ATOM      7  C   UNL     1      22.132   2.957  47.417  1.00  0.00     0.001 A 
BRANCH   3   8
ATOM      8  C   UNL     1      22.950   2.090  51.525  1.00  0.00     0.252 C 
ATOM      9  N   UNL     1      24.134   1.434  51.777  1.00  0.00    -0.355 N 
ATOM     10  O   UNL     1      22.112   2.351  52.381  1.00  0.00    -0.269 OA
ATOM     11  C   UNL     1      24.542   1.119  53.121  1.00  0.00     0.143 C 
ATOM     12  H   UNL     1      24.829   1.389  51.041  1.00  0.00     0.163 HD
ENDBRANCH   3   8
ENDBRANCH   1   2
BRANCH   1  13
ATOM     13  C   UNL     1      25.175   5.327  49.795  1.00  0.00     0.014 A 
ATOM     14  C   UNL     1      26.007   4.211  49.656  1.00  0.00     0.016 A 
ATOM     15  C   UNL     1      25.610   6.592  49.379  1.00  0.00     0.043 A 
ATOM     16  C   UNL     1      27.283   4.326  49.083  1.00  0.00     0.014 A 
ATOM     17  C   UNL     1      26.882   6.680  48.802  1.00  0.00     0.067 A 
ATOM     18  C   UNL     1      27.726   5.589  48.642  1.00  0.00     0.027 A 
ATOM     19  N   UNL     1      27.570   7.746  48.292  1.00  0.00    -0.277 N 
ATOM     20  C   UNL     1      28.901   6.120  48.024  1.00  0.00     0.093 A 
ATOM     21  N   UNL     1      28.785   7.439  47.813  1.00  0.00    -0.175 NA
ATOM     22  H   UNL     1      27.262   8.710  48.237  1.00  0.00     0.190 HD
BRANCH  20  23
ATOM     23  C   UNL     1      30.057   5.348  47.662  1.00  0.00     0.033 C 
ATOM     24  C   UNL     1      31.254   5.434  48.268  1.00  0.00     0.030 C 
BRANCH  24  25
ATOM     25  C   UNL     1      32.446   4.655  47.919  1.00  0.00     0.063 A 
ATOM     26  C   UNL     1      32.398   3.489  47.159  1.00  0.00     0.028 A 
ATOM     27  N   UNL     1      33.612   5.192  48.347  1.00  0.00    -0.257 NA
ATOM     28  C   UNL     1      33.591   2.839  46.845  1.00  0.00     0.004 A 
ATOM     29  C   UNL     1      34.753   4.540  48.030  1.00  0.00     0.111 A 
ATOM     30  C   UNL     1      34.793   3.372  47.290  1.00  0.00     0.020 A 
ENDBRANCH  24  25
ENDBRANCH  20  23
ENDBRANCH   1  13
TORSDOF 5
ENDMDL
MODEL 4
REMARK minimizedAffinity -8.29716778
REMARK minimizedRMSD -1
REMARK SMILES CNC(=O)c1ccccc1Sc1ccc2c(/C=C/c3ccccn3)n[nH]c2c1
REMARK SMILES IDX 11 1 10 2 5 3 6 4 7 5 9 6 8 7 3 8 2 9 4 10 1 11 12 13 13 14
REMARK SMILES IDX 28 15 14 16 27 17 15 18 26 19 16 20 25 21 17 23 18 24 19 25
REMARK SMILES IDX 20 26 24 27 21 28 23 29 22 30
REMARK H PARENT 2 12 26 22
ROOT
ATOM      1  S   UNL     1      23.313   5.402  50.098  1.00  0.00    -0.089 SA
ENDROOT
BRANCH   1   2
ATOM      2  C   UNL     1      23.361   3.836  50.967  1.00  0.00     0.025 A 
ATOM      3  C   UNL     1      22.861   2.630  50.446  1.00  0.00     0.053 A 
ATOM      4  C   UNL     1      22.998   1.436  51.173  1.00  0.00     0.015 A 
ATOM      5  C   UNL     1      23.602   1.440  52.430  1.00  0.00     0.001 A 
ATOM      6  C   UNL     1      23.962   3.821  52.236  1.00  0.00     0.016 A 
ATOM      7  C   UNL     1      24.079   2.635  52.963  1.00  0.00     0.001 A 
BRANCH   3   8
ATOM      8  C   UNL     1      22.201   2.512  49.122  1.00  0.00     0.252 C 
ATOM      9  N   UNL     1      20.841   2.721  49.098  1.00  0.00    -0.355 N 
ATOM     10  O   UNL     1      22.869   2.217  48.136  1.00  0.00    -0.269 OA
ATOM     11  C   UNL     1      20.108   2.740  47.859  1.00  0.00     0.143 C 
ATOM     12  H   UNL     1      20.395   3.101  49.925  1.00  0.00     0.163 HD
ENDBRANCH   3   8
ENDBRANCH   1   2
BRANCH   1  13
ATOM     13  C   UNL     1      25.000   5.497  49.510  1.00  0.00     0.014 A 
ATOM     14  C   UNL     1      25.778   4.334  49.482  1.00  0.00     0.016 A 
ATOM     15  C   UNL     1      25.543   6.723  49.103  1.00  0.00     0.043 A 
ATOM     16  C   UNL     1      27.106   4.363  49.031  1.00  0.00     0.014 A 
ATOM     17  C   UNL     1      26.866   6.724  48.648  1.00  0.00     0.067 A 
ATOM     18  C   UNL     1      27.659   5.585  48.599  1.00  0.00     0.027 A 
ATOM     19  N   UNL     1      27.658   7.734  48.177  1.00  0.00    -0.277 N 
ATOM     20  C   UNL     1      28.915   6.032  48.082  1.00  0.00     0.093 A 
ATOM     21  N   UNL     1      28.893   7.348  47.826  1.00  0.00    -0.175 NA
ATOM     22  H   UNL     1      27.411   8.712  48.066  1.00  0.00     0.190 HD
BRANCH  20  23
ATOM     23  C   UNL     1      30.055   5.189  47.855  1.00  0.00     0.033 C 
ATOM     24  C   UNL     1      31.334   5.580  47.985  1.00  0.00     0.030 C 
BRANCH  24  25
ATOM     25  C   UNL     1      32.512   4.737  47.762  1.00  0.00     0.063 A 
ATOM     26  C   UNL     1      32.483   3.575  46.995  1.00  0.00     0.028 A 
ATOM     27  N   UNL     1      33.653   5.209  48.315  1.00  0.00    -0.257 NA
ATOM     28  C   UNL     1      33.665   2.861  46.806  1.00  0.00     0.004 A 
ATOM     29  C   UNL     1      34.785   4.496  48.119  1.00  0.00     0.111 A 
ATOM     30  C   UNL     1      34.840   3.327  47.381  1.00  0.00     0.020 A 
ENDBRANCH  24  25
ENDBRANCH  20  23
ENDBRANCH   1  13
TORSDOF 5
ENDMDL
MODEL 5
REMARK minimizedAffinity -8.22666931
REMARK minimizedRMSD -1
REMARK SMILES CNC(=O)c1ccccc1Sc1ccc2c(/C=C/c3ccccn3)n[nH]c2c1
REMARK SMILES IDX 11 1 10 2 5 3 6 4 7 5 9 6 8 7 3 8 2 9 4 10 1 11 12 13 13 14
REMARK SMILES IDX 28 15 14 16 27 17 15 18 26 19 16 20 25 21 17 23 18 24 19 25
REMARK SMILES IDX 20 26 24 27 21 28 23 29 22 30
REMARK H PARENT 2 12 26 22
ROOT
ATOM      1  S   UNL     1      20.215   3.949  51.273  1.00  0.00    -0.089 SA
ENDROOT
BRANCH   1   2
ATOM      2  C   UNL     1      20.898   4.031  49.618  1.00  0.00     0.025 A 
ATOM      3  C   UNL     1      21.710   5.080  49.151  1.00  0.00     0.053 A 
ATOM      4  C   UNL     1      22.252   5.029  47.857  1.00  0.00     0.015 A 
ATOM      5  C   UNL     1      21.968   3.956  47.013  1.00  0.00     0.001 A 
ATOM      6  C   UNL     1      20.617   2.962  48.752  1.00  0.00     0.016 A 
ATOM      7  C   UNL     1      21.145   2.925  47.460  1.00  0.00     0.001 A 
BRANCH   3   8
ATOM      8  C   UNL     1      22.075   6.266  49.964  1.00  0.00     0.252 C 
ATOM      9  N   UNL     1      23.409   6.404  50.274  1.00  0.00    -0.355 N 
ATOM     10  O   UNL     1      21.199   7.038  50.338  1.00  0.00    -0.269 OA
ATOM     11  C   UNL     1      23.901   7.568  50.964  1.00  0.00     0.143 C 
ATOM     12  H   UNL     1      24.080   5.806  49.805  1.00  0.00     0.163 HD
ENDBRANCH   3   8
ENDBRANCH   1   2
BRANCH   1  13
ATOM     13  C   UNL     1      21.289   2.721  52.005  1.00  0.00     0.014 A 
ATOM     14  C   UNL     1      22.675   2.877  51.898  1.00  0.00     0.016 A 
ATOM     15  C   UNL     1      20.750   1.605  52.659  1.00  0.00     0.043 A 
ATOM     16  C   UNL     1      23.555   1.936  52.455  1.00  0.00     0.014 A 
ATOM     17  C   UNL     1      21.647   0.686  53.214  1.00  0.00     0.067 A 
ATOM     18  C   UNL     1      23.027   0.819  53.133  1.00  0.00     0.027 A 
ATOM     19  N   UNL     1      21.438  -0.470  53.914  1.00  0.00    -0.277 N 
ATOM     20  C   UNL     1      23.549  -0.321  53.820  1.00  0.00     0.093 A 
ATOM     21  N   UNL     1      22.562  -1.095  54.295  1.00  0.00    -0.175 NA
ATOM     22  H   UNL     1      20.549  -0.884  54.170  1.00  0.00     0.190 HD
BRANCH  20  23
ATOM     23  C   UNL     1      24.946  -0.605  53.993  1.00  0.00     0.033 C 
ATOM     24  C   UNL     1      25.851  -0.626  52.999  1.00  0.00     0.030 C 
BRANCH  24  25
ATOM     25  C   UNL     1      27.281  -0.910  53.152  1.00  0.00     0.063 A 
ATOM     26  C   UNL     1      28.222   0.066  53.464  1.00  0.00     0.028 A 
ATOM     27  N   UNL     1      27.610  -2.217  53.021  1.00  0.00    -0.257 NA
ATOM     28  C   UNL     1      29.555  -0.309  53.629  1.00  0.00     0.004 A 
ATOM     29  C   UNL     1      28.909  -2.552  53.183  1.00  0.00     0.111 A 
ATOM     30  C   UNL     1      29.909  -1.644  53.483  1.00  0.00     0.020 A 
ENDBRANCH  24  25
ENDBRANCH  20  23
ENDBRANCH   1  13
TORSDOF 5
ENDMDL
MODEL 6
REMARK minimizedAffinity -8.22397137
REMARK minimizedRMSD -1
REMARK SMILES CNC(=O)c1ccccc1Sc1ccc2c(/C=C/c3ccccn3)n[nH]c2c1
REMARK SMILES IDX 11 1 10 2 5 3 6 4 7 5 9 6 8 7 3 8 2 9 4 10 1 11 12 13 13 14
REMARK SMILES IDX 28 15 14 16 27 17 15 18 26 19 16 20 25 21 17 23 18 24 19 25
REMARK SMILES IDX 20 26 24 27 21 28 23 29 22 30
REMARK H PARENT 2 12 26 22
ROOT
ATOM      1  S   UNL     1      29.496   8.446  46.260  1.00  0.00    -0.089 SA
ENDROOT
BRANCH   1   2
ATOM      2  C   UNL     1      29.653   9.790  47.434  1.00  0.00     0.025 A 
ATOM      3  C   UNL     1      30.601   9.824  48.473  1.00  0.00     0.053 A 
ATOM      4  C   UNL     1      30.692  10.949  49.307  1.00  0.00     0.015 A 
ATOM      5  C   UNL     1      29.826  12.029  49.137  1.00  0.00     0.001 A 
ATOM      6  C   UNL     1      28.786  10.884  47.280  1.00  0.00     0.016 A 
ATOM      7  C   UNL     1      28.869  11.992  48.126  1.00  0.00     0.001 A 
BRANCH   3   8
ATOM      8  C   UNL     1      31.569   8.733  48.743  1.00  0.00     0.252 C 
ATOM      9  N   UNL     1      31.199   7.813  49.699  1.00  0.00    -0.355 N 
ATOM     10  O   UNL     1      32.638   8.708  48.143  1.00  0.00    -0.269 OA
ATOM     11  C   UNL     1      32.005   6.652  49.972  1.00  0.00     0.143 C 
ATOM     12  H   UNL     1      30.244   7.825  50.038  1.00  0.00     0.163 HD
ENDBRANCH   3   8
ENDBRANCH   1   2
BRANCH   1  13
ATOM     13  C   UNL     1      28.542   7.282  47.227  1.00  0.00     0.014 A 
ATOM     14  C   UNL     1      29.143   6.091  47.648  1.00  0.00     0.016 A 
ATOM     15  C   UNL     1      27.202   7.550  47.541  1.00  0.00     0.043 A 
ATOM     16  C   UNL     1      28.431   5.150  48.406  1.00  0.00     0.014 A 
ATOM     17  C   UNL     1      26.516   6.600  48.306  1.00  0.00     0.067 A 
ATOM     18  C   UNL     1      27.089   5.414  48.747  1.00  0.00     0.027 A 
ATOM     19  N   UNL     1      25.234   6.579  48.780  1.00  0.00    -0.277 N 
ATOM     20  C   UNL     1      26.053   4.754  49.478  1.00  0.00     0.093 A 
ATOM     21  N   UNL     1      24.928   5.483  49.492  1.00  0.00    -0.175 NA
ATOM     22  H   UNL     1      24.518   7.286  48.657  1.00  0.00     0.190 HD
BRANCH  20  23
ATOM     23  C   UNL     1      26.191   3.479  50.125  1.00  0.00     0.033 C 
ATOM     24  C   UNL     1      25.394   3.031  51.110  1.00  0.00     0.030 C 
BRANCH  24  25
ATOM     25  C   UNL     1      25.514   1.734  51.783  1.00  0.00     0.063 A 
ATOM     26  C   UNL     1      26.679   0.972  51.765  1.00  0.00     0.028 A 
ATOM     27  N   UNL     1      24.415   1.358  52.477  1.00  0.00    -0.257 NA
ATOM     28  C   UNL     1      26.709  -0.231  52.469  1.00  0.00     0.004 A 
ATOM     29  C   UNL     1      24.470   0.187  53.148  1.00  0.00     0.111 A 
ATOM     30  C   UNL     1      25.583  -0.636  53.173  1.00  0.00     0.020 A 
ENDBRANCH  24  25
ENDBRANCH  20  23
ENDBRANCH   1  13
TORSDOF 5
ENDMDL
MODEL 7
REMARK minimizedAffinity -8.19662285
REMARK minimizedRMSD -1
REMARK SMILES CNC(=O)c1ccccc1Sc1ccc2c(/C=C/c3ccccn3)n[nH]c2c1
REMARK SMILES IDX 11 1 10 2 5 3 6 4 7 5 9 6 8 7 3 8 2 9 4 10 1 11 12 13 13 14
REMARK SMILES IDX 28 15 14 16 27 17 15 18 26 19 16 20 25 21 17 23 18 24 19 25
REMARK SMILES IDX 20 26 24 27 21 28 23 29 22 30
REMARK H PARENT 2 12 26 22
ROOT
ATOM      1  S   UNL     1      28.405   7.515  47.295  1.00  0.00    -0.089 SA
ENDROOT
BRANCH   1   2
ATOM      2  C   UNL     1      29.948   7.137  48.125  1.00  0.00     0.025 A 
ATOM      3  C   UNL     1      30.624   8.029  48.976  1.00  0.00     0.053 A 
ATOM      4  C   UNL     1      31.797   7.624  49.633  1.00  0.00     0.015 A 
ATOM      5  C   UNL     1      32.319   6.348  49.426  1.00  0.00     0.001 A 
ATOM      6  C   UNL     1      30.491   5.858  47.923  1.00  0.00     0.016 A 
ATOM      7  C   UNL     1      31.667   5.467  48.565  1.00  0.00     0.001 A 
BRANCH   3   8
ATOM      8  C   UNL     1      30.158   9.407  49.267  1.00  0.00     0.252 C 
ATOM      9  N   UNL     1      30.973  10.430  48.836  1.00  0.00    -0.355 N 
ATOM     10  O   UNL     1      29.112   9.575  49.884  1.00  0.00    -0.269 OA
ATOM     11  C   UNL     1      30.576  11.807  48.965  1.00  0.00     0.143 C 
ATOM     12  H   UNL     1      31.739  10.208  48.211  1.00  0.00     0.163 HD
ENDBRANCH   3   8
ENDBRANCH   1   2
BRANCH   1  13
ATOM     13  C   UNL     1      27.243   6.718  48.396  1.00  0.00     0.014 A 
ATOM     14  C   UNL     1      27.164   5.321  48.408  1.00  0.00     0.016 A 
ATOM     15  C   UNL     1      26.406   7.482  49.221  1.00  0.00     0.043 A 
ATOM     16  C   UNL     1      26.265   4.654  49.254  1.00  0.00     0.014 A 
ATOM     17  C   UNL     1      25.525   6.794  50.063  1.00  0.00     0.067 A 
ATOM     18  C   UNL     1      25.432   5.409  50.104  1.00  0.00     0.027 A 
ATOM     19  N   UNL     1      24.614   7.244  50.977  1.00  0.00    -0.277 N 
ATOM     20  C   UNL     1      24.425   5.136  51.082  1.00  0.00     0.093 A 
ATOM     21  N   UNL     1      23.940   6.270  51.608  1.00  0.00    -0.175 NA
ATOM     22  H   UNL     1      24.408   8.206  51.221  1.00  0.00     0.190 HD
BRANCH  20  23
ATOM     23  C   UNL     1      23.989   3.823  51.465  1.00  0.00     0.033 C 
ATOM     24  C   UNL     1      24.403   3.169  52.564  1.00  0.00     0.030 C 
BRANCH  24  25
ATOM     25  C   UNL     1      23.970   1.831  52.976  1.00  0.00     0.063 A 
ATOM     26  C   UNL     1      22.647   1.401  52.899  1.00  0.00     0.028 A 
ATOM     27  N   UNL     1      24.971   1.019  53.388  1.00  0.00    -0.257 NA
ATOM     28  C   UNL     1      22.340   0.095  53.277  1.00  0.00     0.004 A 
ATOM     29  C   UNL     1      24.645  -0.241  53.751  1.00  0.00     0.111 A 
ATOM     30  C   UNL     1      23.356  -0.744  53.715  1.00  0.00     0.020 A 
ENDBRANCH  24  25
ENDBRANCH  20  23
ENDBRANCH   1  13
TORSDOF 5
ENDMDL
MODEL 8
REMARK minimizedAffinity -8.06062889
REMARK minimizedRMSD -1
REMARK SMILES CNC(=O)c1ccccc1Sc1ccc2c(/C=C/c3ccccn3)n[nH]c2c1
REMARK SMILES IDX 11 1 10 2 5 3 6 4 7 5 9 6 8 7 3 8 2 9 4 10 1 11 12 13 13 14
REMARK SMILES IDX 28 15 14 16 27 17 15 18 26 19 16 20 25 21 17 23 18 24 19 25
REMARK SMILES IDX 20 26 24 27 21 28 23 29 22 30
REMARK H PARENT 2 12 26 22
ROOT
ATOM      1  S   UNL     1      20.324   4.470  51.018  1.00  0.00    -0.089 SA
ENDROOT
BRANCH   1   2
ATOM      2  C   UNL     1      20.527   4.142  49.268  1.00  0.00     0.025 A 
ATOM      3  C   UNL     1      19.691   3.291  48.523  1.00  0.00     0.053 A 
ATOM      4  C   UNL     1      19.889   3.142  47.141  1.00  0.00     0.015 A 
ATOM      5  C   UNL     1      20.931   3.810  46.500  1.00  0.00     0.001 A 
ATOM      6  C   UNL     1      21.575   4.802  48.607  1.00  0.00     0.016 A 
ATOM      7  C   UNL     1      21.778   4.636  47.235  1.00  0.00     0.001 A 
BRANCH   3   8
ATOM      8  C   UNL     1      18.555   2.534  49.104  1.00  0.00     0.252 C 
ATOM      9  N   UNL     1      18.804   1.223  49.440  1.00  0.00    -0.355 N 
ATOM     10  O   UNL     1      17.465   3.081  49.232  1.00  0.00    -0.269 OA
ATOM     11  C   UNL     1      17.814   0.420  50.108  1.00  0.00     0.143 C 
ATOM     12  H   UNL     1      19.764   0.896  49.436  1.00  0.00     0.163 HD
ENDBRANCH   3   8
ENDBRANCH   1   2
BRANCH   1  13
ATOM     13  C   UNL     1      21.414   3.231  51.708  1.00  0.00     0.014 A 
ATOM     14  C   UNL     1      22.788   3.486  51.761  1.00  0.00     0.016 A 
ATOM     15  C   UNL     1      20.901   2.011  52.170  1.00  0.00     0.043 A 
ATOM     16  C   UNL     1      23.680   2.541  52.291  1.00  0.00     0.014 A 
ATOM     17  C   UNL     1      21.809   1.089  52.703  1.00  0.00     0.067 A 
ATOM     18  C   UNL     1      23.177   1.319  52.778  1.00  0.00     0.027 A 
ATOM     19  N   UNL     1      21.622  -0.154  53.239  1.00  0.00    -0.277 N 
ATOM     20  C   UNL     1      23.716   0.138  53.378  1.00  0.00     0.093 A 
ATOM     21  N   UNL     1      22.750  -0.749  53.657  1.00  0.00    -0.175 NA
ATOM     22  H   UNL     1      20.746  -0.652  53.354  1.00  0.00     0.190 HD
BRANCH  20  23
ATOM     23  C   UNL     1      25.108  -0.076  53.657  1.00  0.00     0.033 C 
ATOM     24  C   UNL     1      25.957  -0.739  52.852  1.00  0.00     0.030 C 
BRANCH  24  25
ATOM     25  C   UNL     1      27.380  -0.967  53.115  1.00  0.00     0.063 A 
ATOM     26  C   UNL     1      28.251   0.040  53.524  1.00  0.00     0.028 A 
ATOM     27  N   UNL     1      27.775  -2.255  52.985  1.00  0.00    -0.257 NA
ATOM     28  C   UNL     1      29.581  -0.284  53.788  1.00  0.00     0.004 A 
ATOM     29  C   UNL     1      29.070  -2.541  53.246  1.00  0.00     0.111 A 
ATOM     30  C   UNL     1      30.002  -1.599  53.644  1.00  0.00     0.020 A 
ENDBRANCH  24  25
ENDBRANCH  20  23
ENDBRANCH   1  13
TORSDOF 5
ENDMDL
MODEL 9
REMARK minimizedAffinity -7.97891808
REMARK minimizedRMSD -1
REMARK SMILES CNC(=O)c1ccccc1Sc1ccc2c(/C=C/c3ccccn3)n[nH]c2c1
REMARK SMILES IDX 11 1 10 2 5 3 6 4 7 5 9 6 8 7 3 8 2 9 4 10 1 11 12 13 13 14
REMARK SMILES IDX 28 15 14 16 27 17 15 18 26 19 16 20 25 21 17 23 18 24 19 25
REMARK SMILES IDX 20 26 24 27 21 28 23 29 22 30
REMARK H PARENT 2 12 26 22
ROOT
ATOM      1  S   UNL     1      22.902   3.547  51.271  1.00  0.00    -0.089 SA
ENDROOT
BRANCH   1   2
ATOM      2  C   UNL     1      23.576   2.186  52.223  1.00  0.00     0.025 A 
ATOM      3  C   UNL     1      22.957   0.930  52.350  1.00  0.00     0.053 A 
ATOM      4  C   UNL     1      23.591  -0.098  53.066  1.00  0.00     0.015 A 
ATOM      5  C   UNL     1      24.821   0.123  53.683  1.00  0.00     0.001 A 
ATOM      6  C   UNL     1      24.813   2.394  52.855  1.00  0.00     0.016 A 
ATOM      7  C   UNL     1      25.429   1.372  53.582  1.00  0.00     0.001 A 
BRANCH   3   8
ATOM      8  C   UNL     1      21.651   0.587  51.736  1.00  0.00     0.252 C 
ATOM      9  N   UNL     1      20.563   0.586  52.579  1.00  0.00    -0.355 N 
ATOM     10  O   UNL     1      21.598   0.300  50.545  1.00  0.00    -0.269 OA
ATOM     11  C   UNL     1      19.230   0.374  52.080  1.00  0.00     0.143 C 
ATOM     12  H   UNL     1      20.671   0.973  53.510  1.00  0.00     0.163 HD
ENDBRANCH   3   8
ENDBRANCH   1   2
BRANCH   1  13
ATOM     13  C   UNL     1      24.385   4.148  50.472  1.00  0.00     0.014 A 
ATOM     14  C   UNL     1      25.348   3.229  50.043  1.00  0.00     0.016 A 
ATOM     15  C   UNL     1      24.590   5.524  50.298  1.00  0.00     0.043 A 
ATOM     16  C   UNL     1      26.527   3.657  49.414  1.00  0.00     0.014 A 
ATOM     17  C   UNL     1      25.769   5.925  49.660  1.00  0.00     0.067 A 
ATOM     18  C   UNL     1      26.738   5.035  49.214  1.00  0.00     0.027 A 
ATOM     19  N   UNL     1      26.241   7.166  49.334  1.00  0.00    -0.277 N 
ATOM     20  C   UNL     1      27.754   5.858  48.635  1.00  0.00     0.093 A 
ATOM     21  N   UNL     1      27.430   7.157  48.713  1.00  0.00    -0.175 NA
ATOM     22  H   UNL     1      25.795   8.060  49.503  1.00  0.00     0.190 HD
BRANCH  20  23
ATOM     23  C   UNL     1      28.964   5.367  48.037  1.00  0.00     0.033 C 
ATOM     24  C   UNL     1      30.176   5.927  48.192  1.00  0.00     0.030 C 
BRANCH  24  25
ATOM     25  C   UNL     1      31.424   5.443  47.595  1.00  0.00     0.063 A 
ATOM     26  C   UNL     1      32.081   6.104  46.560  1.00  0.00     0.028 A 
ATOM     27  N   UNL     1      31.923   4.324  48.169  1.00  0.00    -0.257 NA
ATOM     28  C   UNL     1      33.285   5.586  46.085  1.00  0.00     0.004 A 
ATOM     29  C   UNL     1      33.090   3.842  47.687  1.00  0.00     0.111 A 
ATOM     30  C   UNL     1      33.800   4.430  46.656  1.00  0.00     0.020 A 
ENDBRANCH  24  25
ENDBRANCH  20  23
ENDBRANCH   1  13
TORSDOF 5
ENDMDL
MODEL 10
REMARK minimizedAffinity -7.97623777
REMARK minimizedRMSD -1
REMARK SMILES CNC(=O)c1ccccc1Sc1ccc2c(/C=C/c3ccccn3)n[nH]c2c1
REMARK SMILES IDX 11 1 10 2 5 3 6 4 7 5 9 6 8 7 3 8 2 9 4 10 1 11 12 13 13 14
REMARK SMILES IDX 28 15 14 16 27 17 15 18 26 19 16 20 25 21 17 23 18 24 19 25
REMARK SMILES IDX 20 26 24 27 21 28 23 29 22 30
REMARK H PARENT 2 12 26 22
ROOT
ATOM      1  S   UNL     1      27.860   8.123  46.711  1.00  0.00    -0.089 SA
ENDROOT
BRANCH   1   2
ATOM      2  C   UNL     1      29.202   8.759  47.715  1.00  0.00     0.025 A 
ATOM      3  C   UNL     1      29.053   9.770  48.681  1.00  0.00     0.053 A 
ATOM      4  C   UNL     1      30.149  10.161  49.466  1.00  0.00     0.015 A 
ATOM      5  C   UNL     1      31.400   9.576  49.276  1.00  0.00     0.001 A 
ATOM      6  C   UNL     1      30.470   8.184  47.534  1.00  0.00     0.016 A 
ATOM      7  C   UNL     1      31.561   8.591  48.305  1.00  0.00     0.001 A 
BRANCH   3   8
ATOM      8  C   UNL     1      27.769  10.458  48.966  1.00  0.00     0.252 C 
ATOM      9  N   UNL     1      27.357  11.385  48.036  1.00  0.00    -0.355 N 
ATOM     10  O   UNL     1      27.159  10.201  49.998  1.00  0.00    -0.269 OA
ATOM     11  C   UNL     1      26.079  12.039  48.147  1.00  0.00     0.143 C 
ATOM     12  H   UNL     1      27.842  11.430  47.147  1.00  0.00     0.163 HD
ENDBRANCH   3   8
ENDBRANCH   1   2
BRANCH   1  13
ATOM     13  C   UNL     1      27.275   6.795  47.757  1.00  0.00     0.014 A 
ATOM     14  C   UNL     1      28.132   5.727  48.045  1.00  0.00     0.016 A 
ATOM     15  C   UNL     1      25.969   6.813  48.264  1.00  0.00     0.043 A 
ATOM     16  C   UNL     1      27.713   4.664  48.859  1.00  0.00     0.014 A 
ATOM     17  C   UNL     1      25.578   5.746  49.080  1.00  0.00     0.067 A 
ATOM     18  C   UNL     1      26.409   4.678  49.392  1.00  0.00     0.027 A 
ATOM     19  N   UNL     1      24.402   5.488  49.726  1.00  0.00    -0.277 N 
ATOM     20  C   UNL     1      25.622   3.832  50.234  1.00  0.00     0.093 A 
ATOM     21  N   UNL     1      24.399   4.346  50.432  1.00  0.00    -0.175 NA
ATOM     22  H   UNL     1      23.562   6.055  49.730  1.00  0.00     0.190 HD
BRANCH  20  23
ATOM     23  C   UNL     1      26.075   2.596  50.808  1.00  0.00     0.033 C 
ATOM     24  C   UNL     1      26.949   2.499  51.824  1.00  0.00     0.030 C 
BRANCH  24  25
ATOM     25  C   UNL     1      27.423   1.250  52.427  1.00  0.00     0.063 A 
ATOM     26  C   UNL     1      26.755   0.036  52.290  1.00  0.00     0.028 A 
ATOM     27  N   UNL     1      28.601   1.356  53.086  1.00  0.00    -0.257 NA
ATOM     28  C   UNL     1      27.306  -1.107  52.867  1.00  0.00     0.004 A 
ATOM     29  C   UNL     1      29.112   0.233  53.638  1.00  0.00     0.111 A 
ATOM     30  C   UNL     1      28.507  -1.008  53.558  1.00  0.00     0.020 A 
ENDBRANCH  24  25
ENDBRANCH  20  23
ENDBRANCH   1  13
TORSDOF 5
ENDMDL
MODEL 11
REMARK minimizedAffinity -7.84873295
REMARK minimizedRMSD -1
REMARK SMILES CNC(=O)c1ccccc1Sc1ccc2c(/C=C/c3ccccn3)n[nH]c2c1
REMARK SMILES IDX 11 1 10 2 5 3 6 4 7 5 9 6 8 7 3 8 2 9 4 10 1 11 12 13 13 14
REMARK SMILES IDX 28 15 14 16 27 17 15 18 26 19 16 20 25 21 17 23 18 24 19 25
REMARK SMILES IDX 20 26 24 27 21 28 23 29 22 30
REMARK H PARENT 2 12 26 22
ROOT
ATOM      1  S   UNL     1      22.600   4.267  51.889  1.00  0.00    -0.089 SA
ENDROOT
BRANCH   1   2
ATOM      2  C   UNL     1      23.558   2.864  52.460  1.00  0.00     0.025 A 
ATOM      3  C   UNL     1      23.318   1.535  52.071  1.00  0.00     0.053 A 
ATOM      4  C   UNL     1      24.161   0.505  52.521  1.00  0.00     0.015 A 
ATOM      5  C   UNL     1      25.222   0.785  53.380  1.00  0.00     0.001 A 
ATOM      6  C   UNL     1      24.628   3.127  53.331  1.00  0.00     0.016 A 
ATOM      7  C   UNL     1      25.451   2.096  53.790  1.00  0.00     0.001 A 
BRANCH   3   8
ATOM      8  C   UNL     1      22.219   1.126  51.161  1.00  0.00     0.252 C 
ATOM      9  N   UNL     1      22.356   1.486  49.840  1.00  0.00    -0.355 N 
ATOM     10  O   UNL     1      21.251   0.525  51.613  1.00  0.00    -0.269 OA
ATOM     11  C   UNL     1      21.410   1.055  48.845  1.00  0.00     0.143 C 
ATOM     12  H   UNL     1      23.249   1.851  49.527  1.00  0.00     0.163 HD
ENDBRANCH   3   8
ENDBRANCH   1   2
BRANCH   1  13
ATOM     13  C   UNL     1      23.874   5.214  51.065  1.00  0.00     0.014 A 
ATOM     14  C   UNL     1      23.927   6.599  51.258  1.00  0.00     0.016 A 
ATOM     15  C   UNL     1      24.795   4.581  50.219  1.00  0.00     0.043 A 
ATOM     16  C   UNL     1      24.908   7.380  50.630  1.00  0.00     0.014 A 
ATOM     17  C   UNL     1      25.770   5.380  49.611  1.00  0.00     0.067 A 
ATOM     18  C   UNL     1      25.853   6.755  49.792  1.00  0.00     0.027 A 
ATOM     19  N   UNL     1      26.796   5.065  48.765  1.00  0.00    -0.277 N 
ATOM     20  C   UNL     1      26.972   7.163  49.001  1.00  0.00     0.093 A 
ATOM     21  N   UNL     1      27.538   6.116  48.385  1.00  0.00    -0.175 NA
ATOM     22  H   UNL     1      27.047   4.148  48.413  1.00  0.00     0.190 HD
BRANCH  20  23
ATOM     23  C   UNL     1      27.441   8.515  48.882  1.00  0.00     0.033 C 
ATOM     24  C   UNL     1      28.658   8.939  49.267  1.00  0.00     0.030 C 
BRANCH  24  25
ATOM     25  C   UNL     1      29.159  10.311  49.153  1.00  0.00     0.063 A 
ATOM     26  C   UNL     1      30.515  10.625  49.089  1.00  0.00     0.028 A 
ATOM     27  N   UNL     1      28.194  11.255  49.055  1.00  0.00    -0.257 NA
ATOM     28  C   UNL     1      30.893  11.958  48.940  1.00  0.00     0.004 A 
ATOM     29  C   UNL     1      28.589  12.540  48.914  1.00  0.00     0.111 A 
ATOM     30  C   UNL     1      29.913  12.938  48.854  1.00  0.00     0.020 A 
ENDBRANCH  24  25
ENDBRANCH  20  23
ENDBRANCH   1  13
TORSDOF 5
ENDMDL
MODEL 12
REMARK minimizedAffinity -7.77339458
REMARK minimizedRMSD -1
REMARK SMILES CNC(=O)c1ccccc1Sc1ccc2c(/C=C/c3ccccn3)n[nH]c2c1
REMARK SMILES IDX 11 1 10 2 5 3 6 4 7 5 9 6 8 7 3 8 2 9 4 10 1 11 12 13 13 14
REMARK SMILES IDX 28 15 14 16 27 17 15 18 26 19 16 20 25 21 17 23 18 24 19 25
REMARK SMILES IDX 20 26 24 27 21 28 23 29 22 30
REMARK H PARENT 2 12 26 22
ROOT
ATOM      1  S   UNL     1      33.768   7.167  48.153  1.00  0.00    -0.089 SA
ENDROOT
BRANCH   1   2
ATOM      2  C   UNL     1      34.117   5.648  47.269  1.00  0.00     0.025 A 
ATOM      3  C   UNL     1      34.049   5.517  45.870  1.00  0.00     0.053 A 
ATOM      4  C   UNL     1      34.402   4.303  45.259  1.00  0.00     0.015 A 
ATOM      5  C   UNL     1      34.791   3.209  46.030  1.00  0.00     0.001 A 
ATOM      6  C   UNL     1      34.506   4.535  48.030  1.00  0.00     0.016 A 
ATOM      7  C   UNL     1      34.838   3.325  47.417  1.00  0.00     0.001 A 
BRANCH   3   8
ATOM      8  C   UNL     1      33.648   6.614  44.956  1.00  0.00     0.252 C 
ATOM      9  N   UNL     1      34.663   7.420  44.490  1.00  0.00    -0.355 N 
ATOM     10  O   UNL     1      32.464   6.772  44.680  1.00  0.00    -0.269 OA
ATOM     11  C   UNL     1      34.413   8.449  43.514  1.00  0.00     0.143 C 
ATOM     12  H   UNL     1      35.621   7.133  44.649  1.00  0.00     0.163 HD
ENDBRANCH   3   8
ENDBRANCH   1   2
BRANCH   1  13
ATOM     13  C   UNL     1      31.986   7.069  48.272  1.00  0.00     0.014 A 
ATOM     14  C   UNL     1      31.338   5.902  47.854  1.00  0.00     0.016 A 
ATOM     15  C   UNL     1      31.245   8.156  48.758  1.00  0.00     0.043 A 
ATOM     16  C   UNL     1      29.942   5.782  47.927  1.00  0.00     0.014 A 
ATOM     17  C   UNL     1      29.855   8.009  48.830  1.00  0.00     0.067 A 
ATOM     18  C   UNL     1      29.186   6.859  48.432  1.00  0.00     0.027 A 
ATOM     19  N   UNL     1      28.880   8.861  49.265  1.00  0.00    -0.277 N 
ATOM     20  C   UNL     1      27.804   7.136  48.672  1.00  0.00     0.093 A 
ATOM     21  N   UNL     1      27.637   8.363  49.186  1.00  0.00    -0.175 NA
ATOM     22  H   UNL     1      28.998   9.798  49.634  1.00  0.00     0.190 HD
BRANCH  20  23
ATOM     23  C   UNL     1      26.728   6.222  48.409  1.00  0.00     0.033 C 
ATOM     24  C   UNL     1      25.863   5.772  49.335  1.00  0.00     0.030 C 
BRANCH  24  25
ATOM     25  C   UNL     1      24.756   4.842  49.089  1.00  0.00     0.063 A 
ATOM     26  C   UNL     1      24.719   3.549  49.603  1.00  0.00     0.028 A 
ATOM     27  N   UNL     1      23.737   5.362  48.366  1.00  0.00    -0.257 NA
ATOM     28  C   UNL     1      23.604   2.753  49.348  1.00  0.00     0.004 A 
ATOM     29  C   UNL     1      22.669   4.568  48.132  1.00  0.00     0.111 A 
ATOM     30  C   UNL     1      22.558   3.269  48.595  1.00  0.00     0.020 A 
ENDBRANCH  24  25
ENDBRANCH  20  23
ENDBRANCH   1  13
TORSDOF 5
ENDMDL
MODEL 13
REMARK minimizedAffinity -7.75513268
REMARK minimizedRMSD -1
REMARK SMILES CNC(=O)c1ccccc1Sc1ccc2c(/C=C/c3ccccn3)n[nH]c2c1
REMARK SMILES IDX 11 1 10 2 5 3 6 4 7 5 9 6 8 7 3 8 2 9 4 10 1 11 12 13 13 14
REMARK SMILES IDX 28 15 14 16 27 17 15 18 26 19 16 20 25 21 17 23 18 24 19 25
REMARK SMILES IDX 20 26 24 27 21 28 23 29 22 30
REMARK H PARENT 2 12 26 22
ROOT
ATOM      1  S   UNL     1      23.694   5.341  50.060  1.00  0.00    -0.089 SA
ENDROOT
BRANCH   1   2
ATOM      2  C   UNL     1      22.930   4.618  48.609  1.00  0.00     0.025 A 
ATOM      3  C   UNL     1      22.497   5.359  47.494  1.00  0.00     0.053 A 
ATOM      4  C   UNL     1      21.966   4.700  46.374  1.00  0.00     0.015 A 
ATOM      5  C   UNL     1      21.834   3.312  46.366  1.00  0.00     0.001 A 
ATOM      6  C   UNL     1      22.785   3.222  48.586  1.00  0.00     0.016 A 
ATOM      7  C   UNL     1      22.239   2.574  47.475  1.00  0.00     0.001 A 
BRANCH   3   8
ATOM      8  C   UNL     1      22.591   6.836  47.397  1.00  0.00     0.252 C 
ATOM      9  N   UNL     1      23.605   7.331  46.608  1.00  0.00    -0.355 N 
ATOM     10  O   UNL     1      21.804   7.536  48.024  1.00  0.00    -0.269 OA
ATOM     11  C   UNL     1      23.731   8.742  46.351  1.00  0.00     0.143 C 
ATOM     12  H   UNL     1      24.115   6.687  46.014  1.00  0.00     0.163 HD
ENDBRANCH   3   8
ENDBRANCH   1   2
BRANCH   1  13
ATOM     13  C   UNL     1      25.359   5.592  49.457  1.00  0.00     0.014 A 
ATOM     14  C   UNL     1      26.164   4.479  49.194  1.00  0.00     0.016 A 
ATOM     15  C   UNL     1      25.859   6.888  49.270  1.00  0.00     0.043 A 
ATOM     16  C   UNL     1      27.477   4.630  48.722  1.00  0.00     0.014 A 
ATOM     17  C   UNL     1      27.168   7.012  48.790  1.00  0.00     0.067 A 
ATOM     18  C   UNL     1      27.986   5.926  48.511  1.00  0.00     0.027 A 
ATOM     19  N   UNL     1      27.919   8.115  48.495  1.00  0.00    -0.277 N 
ATOM     20  C   UNL     1      29.214   6.498  48.054  1.00  0.00     0.093 A 
ATOM     21  N   UNL     1      29.153   7.838  48.046  1.00  0.00    -0.175 NA
ATOM     22  H   UNL     1      27.645   9.088  48.573  1.00  0.00     0.190 HD
BRANCH  20  23
ATOM     23  C   UNL     1      30.367   5.745  47.645  1.00  0.00     0.033 C 
ATOM     24  C   UNL     1      31.418   5.466  48.436  1.00  0.00     0.030 C 
BRANCH  24  25
ATOM     25  C   UNL     1      32.603   4.698  48.042  1.00  0.00     0.063 A 
ATOM     26  C   UNL     1      32.542   3.561  47.241  1.00  0.00     0.028 A 
ATOM     27  N   UNL     1      33.776   5.217  48.472  1.00  0.00    -0.257 NA
ATOM     28  C   UNL     1      33.728   2.920  46.886  1.00  0.00     0.004 A 
ATOM     29  C   UNL     1      34.911   4.575  48.116  1.00  0.00     0.111 A 
ATOM     30  C   UNL     1      34.938   3.434  47.334  1.00  0.00     0.020 A 
ENDBRANCH  24  25
ENDBRANCH  20  23
ENDBRANCH   1  13
TORSDOF 5
ENDMDL
MODEL 14
REMARK minimizedAffinity -7.72674036
REMARK minimizedRMSD -1
REMARK SMILES CNC(=O)c1ccccc1Sc1ccc2c(/C=C/c3ccccn3)n[nH]c2c1
REMARK SMILES IDX 11 1 10 2 5 3 6 4 7 5 9 6 8 7 3 8 2 9 4 10 1 11 12 13 13 14
REMARK SMILES IDX 28 15 14 16 27 17 15 18 26 19 16 20 25 21 17 23 18 24 19 25
REMARK SMILES IDX 20 26 24 27 21 28 23 29 22 30
REMARK H PARENT 2 12 26 22
ROOT
ATOM      1  S   UNL     1      33.302   7.390  46.698  1.00  0.00    -0.089 SA
ENDROOT
BRANCH   1   2
ATOM      2  C   UNL     1      33.949   5.718  46.728  1.00  0.00     0.025 A 
ATOM      3  C   UNL     1      34.200   4.950  45.577  1.00  0.00     0.053 A 
ATOM      4  C   UNL     1      34.767   3.671  45.695  1.00  0.00     0.015 A 
ATOM      5  C   UNL     1      35.057   3.138  46.950  1.00  0.00     0.001 A 
ATOM      6  C   UNL     1      34.242   5.164  47.984  1.00  0.00     0.016 A 
ATOM      7  C   UNL     1      34.788   3.883  48.095  1.00  0.00     0.001 A 
BRANCH   3   8
ATOM      8  C   UNL     1      33.931   5.418  44.196  1.00  0.00     0.252 C 
ATOM      9  N   UNL     1      34.747   6.420  43.722  1.00  0.00    -0.355 N 
ATOM     10  O   UNL     1      33.004   4.929  43.560  1.00  0.00    -0.269 OA
ATOM     11  C   UNL     1      34.653   6.882  42.362  1.00  0.00     0.143 C 
ATOM     12  H   UNL     1      35.574   6.664  44.255  1.00  0.00     0.163 HD
ENDBRANCH   3   8
ENDBRANCH   1   2
BRANCH   1  13
ATOM     13  C   UNL     1      31.596   7.084  47.138  1.00  0.00     0.014 A 
ATOM     14  C   UNL     1      31.297   6.050  48.032  1.00  0.00     0.016 A 
ATOM     15  C   UNL     1      30.569   7.856  46.578  1.00  0.00     0.043 A 
ATOM     16  C   UNL     1      29.973   5.774  48.403  1.00  0.00     0.014 A 
ATOM     17  C   UNL     1      29.257   7.567  46.971  1.00  0.00     0.067 A 
ATOM     18  C   UNL     1      28.931   6.554  47.864  1.00  0.00     0.027 A 
ATOM     19  N   UNL     1      28.065   8.139  46.624  1.00  0.00    -0.277 N 
ATOM     20  C   UNL     1      27.507   6.608  47.977  1.00  0.00     0.093 A 
ATOM     21  N   UNL     1      26.996   7.586  47.216  1.00  0.00    -0.175 NA
ATOM     22  H   UNL     1      27.914   8.915  45.989  1.00  0.00     0.190 HD
BRANCH  20  23
ATOM     23  C   UNL     1      26.718   5.738  48.804  1.00  0.00     0.033 C 
ATOM     24  C   UNL     1      27.054   4.477  49.128  1.00  0.00     0.030 C 
BRANCH  24  25
ATOM     25  C   UNL     1      26.267   3.573  49.971  1.00  0.00     0.063 A 
ATOM     26  C   UNL     1      24.899   3.374  49.806  1.00  0.00     0.028 A 
ATOM     27  N   UNL     1      26.989   2.896  50.894  1.00  0.00    -0.257 NA
ATOM     28  C   UNL     1      24.245   2.463  50.632  1.00  0.00     0.004 A 
ATOM     29  C   UNL     1      26.330   2.020  51.684  1.00  0.00     0.111 A 
ATOM     30  C   UNL     1      24.971   1.773  51.593  1.00  0.00     0.020 A 
ENDBRANCH  24  25
ENDBRANCH  20  23
ENDBRANCH   1  13
TORSDOF 5
ENDMDL
MODEL 15
REMARK minimizedAffinity -7.72015715
REMARK minimizedRMSD -1
REMARK SMILES CNC(=O)c1ccccc1Sc1ccc2c(/C=C/c3ccccn3)n[nH]c2c1
REMARK SMILES IDX 11 1 10 2 5 3 6 4 7 5 9 6 8 7 3 8 2 9 4 10 1 11 12 13 13 14
REMARK SMILES IDX 28 15 14 16 27 17 15 18 26 19 16 20 25 21 17 23 18 24 19 25
REMARK SMILES IDX 20 26 24 27 21 28 23 29 22 30
REMARK H PARENT 2 12 26 22
ROOT
ATOM      1  S   UNL     1      28.479   7.307  47.049  1.00  0.00    -0.089 SA
ENDROOT
BRANCH   1   2
ATOM      2  C   UNL     1      29.525   8.195  48.202  1.00  0.00     0.025 A 
ATOM      3  C   UNL     1      30.698   7.667  48.770  1.00  0.00     0.053 A 
ATOM      4  C   UNL     1      31.489   8.460  49.617  1.00  0.00     0.015 A 
ATOM      5  C   UNL     1      31.106   9.763  49.927  1.00  0.00     0.001 A 
ATOM      6  C   UNL     1      29.151   9.508  48.530  1.00  0.00     0.016 A 
ATOM      7  C   UNL     1      29.933  10.285  49.387  1.00  0.00     0.001 A 
BRANCH   3   8
ATOM      8  C   UNL     1      31.198   6.295  48.508  1.00  0.00     0.252 C 
ATOM      9  N   UNL     1      31.866   6.107  47.319  1.00  0.00    -0.355 N 
ATOM     10  O   UNL     1      30.979   5.405  49.323  1.00  0.00    -0.269 OA
ATOM     11  C   UNL     1      32.489   4.848  47.003  1.00  0.00     0.143 C 
ATOM     12  H   UNL     1      32.127   6.922  46.776  1.00  0.00     0.163 HD
ENDBRANCH   3   8
ENDBRANCH   1   2
BRANCH   1  13
ATOM     13  C   UNL     1      27.400   6.447  48.188  1.00  0.00     0.014 A 
ATOM     14  C   UNL     1      27.648   5.101  48.477  1.00  0.00     0.016 A 
ATOM     15  C   UNL     1      26.308   7.107  48.767  1.00  0.00     0.043 A 
ATOM     16  C   UNL     1      26.826   4.388  49.362  1.00  0.00     0.014 A 
ATOM     17  C   UNL     1      25.509   6.377  49.653  1.00  0.00     0.067 A 
ATOM     18  C   UNL     1      25.736   5.043  49.967  1.00  0.00     0.027 A 
ATOM     19  N   UNL     1      24.405   6.734  50.377  1.00  0.00    -0.277 N 
ATOM     20  C   UNL     1      24.700   4.701  50.892  1.00  0.00     0.093 A 
ATOM     21  N   UNL     1      23.900   5.749  51.134  1.00  0.00    -0.175 NA
ATOM     22  H   UNL     1      23.950   7.640  50.402  1.00  0.00     0.190 HD
BRANCH  20  23
ATOM     23  C   UNL     1      24.536   3.409  51.496  1.00  0.00     0.033 C 
ATOM     24  C   UNL     1      23.356   2.884  51.870  1.00  0.00     0.030 C 
BRANCH  24  25
ATOM     25  C   UNL     1      23.163   1.567  52.484  1.00  0.00     0.063 A 
ATOM     26  C   UNL     1      24.195   0.846  53.080  1.00  0.00     0.028 A 
ATOM     27  N   UNL     1      21.883   1.128  52.480  1.00  0.00    -0.257 NA
ATOM     28  C   UNL     1      23.905  -0.381  53.675  1.00  0.00     0.004 A 
ATOM     29  C   UNL     1      21.631  -0.066  53.061  1.00  0.00     0.111 A 
ATOM     30  C   UNL     1      22.598  -0.850  53.664  1.00  0.00     0.020 A 
ENDBRANCH  24  25
ENDBRANCH  20  23
ENDBRANCH   1  13
TORSDOF 5
ENDMDL
MODEL 16
REMARK minimizedAffinity -7.67098951
REMARK minimizedRMSD -1
REMARK SMILES CNC(=O)c1ccccc1Sc1ccc2c(/C=C/c3ccccn3)n[nH]c2c1
REMARK SMILES IDX 11 1 10 2 5 3 6 4 7 5 9 6 8 7 3 8 2 9 4 10 1 11 12 13 13 14
REMARK SMILES IDX 28 15 14 16 27 17 15 18 26 19 16 20 25 21 17 23 18 24 19 25
REMARK SMILES IDX 20 26 24 27 21 28 23 29 22 30
REMARK H PARENT 2 12 26 22
ROOT
ATOM      1  S   UNL     1      21.282   0.737  50.334  1.00  0.00    -0.089 SA
ENDROOT
BRANCH   1   2
ATOM      2  C   UNL     1      21.485   0.249  52.046  1.00  0.00     0.025 A 
ATOM      3  C   UNL     1      20.417  -0.007  52.924  1.00  0.00     0.053 A 
ATOM      4  C   UNL     1      20.671  -0.446  54.234  1.00  0.00     0.015 A 
ATOM      5  C   UNL     1      21.981  -0.602  54.686  1.00  0.00     0.001 A 
ATOM      6  C   UNL     1      22.797   0.092  52.520  1.00  0.00     0.016 A 
ATOM      7  C   UNL     1      23.044  -0.327  53.829  1.00  0.00     0.001 A 
BRANCH   3   8
ATOM      8  C   UNL     1      18.988   0.126  52.549  1.00  0.00     0.252 C 
ATOM      9  N   UNL     1      18.201  -0.988  52.740  1.00  0.00    -0.355 N 
ATOM     10  O   UNL     1      18.582   1.181  52.073  1.00  0.00    -0.269 OA
ATOM     11  C   UNL     1      16.780  -0.947  52.514  1.00  0.00     0.143 C 
ATOM     12  H   UNL     1      18.581  -1.764  53.270  1.00  0.00     0.163 HD
ENDBRANCH   3   8
ENDBRANCH   1   2
BRANCH   1  13
ATOM     13  C   UNL     1      22.327   2.187  50.285  1.00  0.00     0.014 A 
ATOM     14  C   UNL     1      23.343   2.263  49.326  1.00  0.00     0.016 A 
ATOM     15  C   UNL     1      22.146   3.225  51.209  1.00  0.00     0.043 A 
ATOM     16  C   UNL     1      24.188   3.380  49.254  1.00  0.00     0.014 A 
ATOM     17  C   UNL     1      22.996   4.333  51.111  1.00  0.00     0.067 A 
ATOM     18  C   UNL     1      24.006   4.440  50.163  1.00  0.00     0.027 A 
ATOM     19  N   UNL     1      23.059   5.489  51.838  1.00  0.00    -0.277 N 
ATOM     20  C   UNL     1      24.616   5.708  50.418  1.00  0.00     0.093 A 
ATOM     21  N   UNL     1      24.021   6.336  51.442  1.00  0.00    -0.175 NA
ATOM     22  H   UNL     1      22.469   5.762  52.616  1.00  0.00     0.190 HD
BRANCH  20  23
ATOM     23  C   UNL     1      25.718   6.251  49.674  1.00  0.00     0.033 C 
ATOM     24  C   UNL     1      26.729   5.526  49.166  1.00  0.00     0.030 C 
BRANCH  24  25
ATOM     25  C   UNL     1      27.861   6.057  48.402  1.00  0.00     0.063 A 
ATOM     26  C   UNL     1      27.799   7.241  47.672  1.00  0.00     0.028 A 
ATOM     27  N   UNL     1      28.999   5.333  48.508  1.00  0.00    -0.257 NA
ATOM     28  C   UNL     1      28.942   7.687  47.009  1.00  0.00     0.004 A 
ATOM     29  C   UNL     1      30.092   5.786  47.854  1.00  0.00     0.111 A 
ATOM     30  C   UNL     1      30.112   6.944  47.098  1.00  0.00     0.020 A 
ENDBRANCH  24  25
ENDBRANCH  20  23
ENDBRANCH   1  13
TORSDOF 5
ENDMDL
MODEL 17
REMARK minimizedAffinity -7.62660646
REMARK minimizedRMSD -1
REMARK SMILES CNC(=O)c1ccccc1Sc1ccc2c(/C=C/c3ccccn3)n[nH]c2c1
REMARK SMILES IDX 11 1 10 2 5 3 6 4 7 5 9 6 8 7 3 8 2 9 4 10 1 11 12 13 13 14
REMARK SMILES IDX 28 15 14 16 27 17 15 18 26 19 16 20 25 21 17 23 18 24 19 25
REMARK SMILES IDX 20 26 24 27 21 28 23 29 22 30
REMARK H PARENT 2 12 26 22
ROOT
ATOM      1  S   UNL     1      22.303   2.064  49.877  1.00  0.00    -0.089 SA
ENDROOT
BRANCH   1   2
ATOM      2  C   UNL     1      22.750   1.377  51.471  1.00  0.00     0.025 A 
ATOM      3  C   UNL     1      21.823   1.068  52.483  1.00  0.00     0.053 A 
ATOM      4  C   UNL     1      22.258   0.474  53.678  1.00  0.00     0.015 A 
ATOM      5  C   UNL     1      23.612   0.213  53.887  1.00  0.00     0.001 A 
ATOM      6  C   UNL     1      24.109   1.113  51.700  1.00  0.00     0.016 A 
ATOM      7  C   UNL     1      24.538   0.539  52.899  1.00  0.00     0.001 A 
BRANCH   3   8
ATOM      8  C   UNL     1      20.363   1.302  52.366  1.00  0.00     0.252 C 
ATOM      9  N   UNL     1      19.618   0.263  51.856  1.00  0.00    -0.355 N 
ATOM     10  O   UNL     1      19.895   2.387  52.693  1.00  0.00    -0.269 OA
ATOM     11  C   UNL     1      18.182   0.331  51.795  1.00  0.00     0.143 C 
ATOM     12  H   UNL     1      20.061  -0.643  51.749  1.00  0.00     0.163 HD
ENDBRANCH   3   8
ENDBRANCH   1   2
BRANCH   1  13
ATOM     13  C   UNL     1      23.212   3.604  49.923  1.00  0.00     0.014 A 
ATOM     14  C   UNL     1      24.369   3.736  49.148  1.00  0.00     0.016 A 
ATOM     15  C   UNL     1      22.783   4.658  50.741  1.00  0.00     0.043 A 
ATOM     16  C   UNL     1      25.114   4.925  49.155  1.00  0.00     0.014 A 
ATOM     17  C   UNL     1      23.537   5.837  50.724  1.00  0.00     0.067 A 
ATOM     18  C   UNL     1      24.684   6.000  49.957  1.00  0.00     0.027 A 
ATOM     19  N   UNL     1      23.372   7.023  51.383  1.00  0.00    -0.277 N 
ATOM     20  C   UNL     1      25.128   7.330  50.238  1.00  0.00     0.093 A 
ATOM     21  N   UNL     1      24.310   7.941  51.108  1.00  0.00    -0.175 NA
ATOM     22  H   UNL     1      22.633   7.271  52.032  1.00  0.00     0.190 HD
BRANCH  20  23
ATOM     23  C   UNL     1      26.291   7.944  49.662  1.00  0.00     0.033 C 
ATOM     24  C   UNL     1      26.927   9.011  50.177  1.00  0.00     0.030 C 
BRANCH  24  25
ATOM     25  C   UNL     1      28.116   9.652  49.609  1.00  0.00     0.063 A 
ATOM     26  C   UNL     1      29.307   8.972  49.368  1.00  0.00     0.028 A 
ATOM     27  N   UNL     1      27.949  10.954  49.280  1.00  0.00    -0.257 NA
ATOM     28  C   UNL     1      30.372   9.659  48.787  1.00  0.00     0.004 A 
ATOM     29  C   UNL     1      28.998  11.597  48.721  1.00  0.00     0.111 A 
ATOM     30  C   UNL     1      30.218  10.999  48.459  1.00  0.00     0.020 A 
ENDBRANCH  24  25
ENDBRANCH  20  23
ENDBRANCH   1  13
TORSDOF 5
ENDMDL
MODEL 18
REMARK minimizedAffinity -7.57638788
REMARK minimizedRMSD -1
REMARK SMILES CNC(=O)c1ccccc1Sc1ccc2c(/C=C/c3ccccn3)n[nH]c2c1
REMARK SMILES IDX 11 1 10 2 5 3 6 4 7 5 9 6 8 7 3 8 2 9 4 10 1 11 12 13 13 14
REMARK SMILES IDX 28 15 14 16 27 17 15 18 26 19 16 20 25 21 17 23 18 24 19 25
REMARK SMILES IDX 20 26 24 27 21 28 23 29 22 30
REMARK H PARENT 2 12 26 22
ROOT
ATOM      1  S   UNL     1      33.593   6.296  48.221  1.00  0.00    -0.089 SA
ENDROOT
BRANCH   1   2
ATOM      2  C   UNL     1      33.800   6.074  46.455  1.00  0.00     0.025 A 
ATOM      3  C   UNL     1      33.946   4.822  45.830  1.00  0.00     0.053 A 
ATOM      4  C   UNL     1      34.040   4.740  44.432  1.00  0.00     0.015 A 
ATOM      5  C   UNL     1      34.019   5.895  43.652  1.00  0.00     0.001 A 
ATOM      6  C   UNL     1      33.786   7.227  45.655  1.00  0.00     0.016 A 
ATOM      7  C   UNL     1      33.898   7.140  44.265  1.00  0.00     0.001 A 
BRANCH   3   8
ATOM      8  C   UNL     1      33.980   3.532  46.562  1.00  0.00     0.252 C 
ATOM      9  N   UNL     1      32.811   2.806  46.570  1.00  0.00    -0.355 N 
ATOM     10  O   UNL     1      35.007   3.187  47.135  1.00  0.00    -0.269 OA
ATOM     11  C   UNL     1      32.750   1.492  47.154  1.00  0.00     0.143 C 
ATOM     12  H   UNL     1      32.058   3.092  45.954  1.00  0.00     0.163 HD
ENDBRANCH   3   8
ENDBRANCH   1   2
BRANCH   1  13
ATOM     13  C   UNL     1      31.816   6.479  48.318  1.00  0.00     0.014 A 
ATOM     14  C   UNL     1      30.999   5.419  47.909  1.00  0.00     0.016 A 
ATOM     15  C   UNL     1      31.249   7.675  48.778  1.00  0.00     0.043 A 
ATOM     16  C   UNL     1      29.601   5.520  47.965  1.00  0.00     0.014 A 
ATOM     17  C   UNL     1      29.853   7.747  48.834  1.00  0.00     0.067 A 
ATOM     18  C   UNL     1      29.016   6.709  48.444  1.00  0.00     0.027 A 
ATOM     19  N   UNL     1      29.017   8.749  49.243  1.00  0.00    -0.277 N 
ATOM     20  C   UNL     1      27.692   7.202  48.661  1.00  0.00     0.093 A 
ATOM     21  N   UNL     1      27.712   8.449  49.154  1.00  0.00    -0.175 NA
ATOM     22  H   UNL     1      29.276   9.662  49.599  1.00  0.00     0.190 HD
BRANCH  20  23
ATOM     23  C   UNL     1      26.489   6.463  48.397  1.00  0.00     0.033 C 
ATOM     24  C   UNL     1      25.916   5.603  49.257  1.00  0.00     0.030 C 
BRANCH  24  25
ATOM     25  C   UNL     1      24.688   4.840  49.011  1.00  0.00     0.063 A 
ATOM     26  C   UNL     1      24.502   3.533  49.453  1.00  0.00     0.028 A 
ATOM     27  N   UNL     1      23.719   5.530  48.365  1.00  0.00    -0.257 NA
ATOM     28  C   UNL     1      23.283   2.904  49.206  1.00  0.00     0.004 A 
ATOM     29  C   UNL     1      22.548   4.896  48.136  1.00  0.00     0.111 A 
ATOM     30  C   UNL     1      22.285   3.596  48.530  1.00  0.00     0.020 A 
ENDBRANCH  24  25
ENDBRANCH  20  23
ENDBRANCH   1  13
TORSDOF 5
ENDMDL
MODEL 19
REMARK minimizedAffinity -7.50110149
REMARK minimizedRMSD -1
REMARK SMILES CNC(=O)c1ccccc1Sc1ccc2c(/C=C/c3ccccn3)n[nH]c2c1
REMARK SMILES IDX 11 1 10 2 5 3 6 4 7 5 9 6 8 7 3 8 2 9 4 10 1 11 12 13 13 14
REMARK SMILES IDX 28 15 14 16 27 17 15 18 26 19 16 20 25 21 17 23 18 24 19 25
REMARK SMILES IDX 20 26 24 27 21 28 23 29 22 30
REMARK H PARENT 2 12 26 22
ROOT
ATOM      1  S   UNL     1      32.417   7.978  46.667  1.00  0.00    -0.089 SA
ENDROOT
BRANCH   1   2
ATOM      2  C   UNL     1      32.903   6.687  45.522  1.00  0.00     0.025 A 
ATOM      3  C   UNL     1      33.691   5.577  45.874  1.00  0.00     0.053 A 
ATOM      4  C   UNL     1      33.970   4.582  44.924  1.00  0.00     0.015 A 
ATOM      5  C   UNL     1      33.496   4.698  43.618  1.00  0.00     0.001 A 
ATOM      6  C   UNL     1      32.438   6.790  44.201  1.00  0.00     0.016 A 
ATOM      7  C   UNL     1      32.734   5.806  43.256  1.00  0.00     0.001 A 
BRANCH   3   8
ATOM      8  C   UNL     1      34.245   5.355  47.232  1.00  0.00     0.252 C 
ATOM      9  N   UNL     1      35.230   6.227  47.638  1.00  0.00    -0.355 N 
ATOM     10  O   UNL     1      33.837   4.416  47.907  1.00  0.00    -0.269 OA
ATOM     11  C   UNL     1      35.768   6.178  48.972  1.00  0.00     0.143 C 
ATOM     12  H   UNL     1      35.404   7.055  47.080  1.00  0.00     0.163 HD
ENDBRANCH   3   8
ENDBRANCH   1   2
BRANCH   1  13
ATOM     13  C   UNL     1      30.839   7.343  47.219  1.00  0.00     0.014 A 
ATOM     14  C   UNL     1      30.800   6.137  47.928  1.00  0.00     0.016 A 
ATOM     15  C   UNL     1      29.654   8.032  46.928  1.00  0.00     0.043 A 
ATOM     16  C   UNL     1      29.585   5.601  48.379  1.00  0.00     0.014 A 
ATOM     17  C   UNL     1      28.456   7.482  47.396  1.00  0.00     0.067 A 
ATOM     18  C   UNL     1      28.387   6.293  48.110  1.00  0.00     0.027 A 
ATOM     19  N   UNL     1      27.163   7.915  47.291  1.00  0.00    -0.277 N 
ATOM     20  C   UNL     1      26.996   6.107  48.383  1.00  0.00     0.093 A 
ATOM     21  N   UNL     1      26.264   7.111  47.879  1.00  0.00    -0.175 NA
ATOM     22  H   UNL     1      26.829   8.756  46.835  1.00  0.00     0.190 HD
BRANCH  20  23
ATOM     23  C   UNL     1      26.445   4.997  49.109  1.00  0.00     0.033 C 
ATOM     24  C   UNL     1      25.142   4.666  49.127  1.00  0.00     0.030 C 
BRANCH  24  25
ATOM     25  C   UNL     1      24.557   3.538  49.857  1.00  0.00     0.063 A 
ATOM     26  C   UNL     1      25.209   2.886  50.901  1.00  0.00     0.028 A 
ATOM     27  N   UNL     1      23.300   3.212  49.474  1.00  0.00    -0.257 NA
ATOM     28  C   UNL     1      24.554   1.848  51.562  1.00  0.00     0.004 A 
ATOM     29  C   UNL     1      22.689   2.201  50.130  1.00  0.00     0.111 A 
ATOM     30  C   UNL     1      23.270   1.494  51.168  1.00  0.00     0.020 A 
ENDBRANCH  24  25
ENDBRANCH  20  23
ENDBRANCH   1  13
TORSDOF 5
ENDMDL
MODEL 20
REMARK minimizedAffinity -7.49475622
REMARK minimizedRMSD -1
REMARK SMILES CNC(=O)c1ccccc1Sc1ccc2c(/C=C/c3ccccn3)n[nH]c2c1
REMARK SMILES IDX 11 1 10 2 5 3 6 4 7 5 9 6 8 7 3 8 2 9 4 10 1 11 12 13 13 14
REMARK SMILES IDX 28 15 14 16 27 17 15 18 26 19 16 20 25 21 17 23 18 24 19 25
REMARK SMILES IDX 20 26 24 27 21 28 23 29 22 30
REMARK H PARENT 2 12 26 22
ROOT
ATOM      1  S   UNL     1      22.726   4.526  51.693  1.00  0.00    -0.089 SA
ENDROOT
BRANCH   1   2
ATOM      2  C   UNL     1      22.159   3.386  50.431  1.00  0.00     0.025 A 
ATOM      3  C   UNL     1      22.377   1.998  50.469  1.00  0.00     0.053 A 
ATOM      4  C   UNL     1      21.841   1.173  49.466  1.00  0.00     0.015 A 
ATOM      5  C   UNL     1      21.116   1.724  48.410  1.00  0.00     0.001 A 
ATOM      6  C   UNL     1      21.431   3.924  49.357  1.00  0.00     0.016 A 
ATOM      7  C   UNL     1      20.917   3.101  48.354  1.00  0.00     0.001 A 
BRANCH   3   8
ATOM      8  C   UNL     1      23.132   1.308  51.544  1.00  0.00     0.252 C 
ATOM      9  N   UNL     1      22.380   0.646  52.488  1.00  0.00    -0.355 N 
ATOM     10  O   UNL     1      24.356   1.375  51.563  1.00  0.00    -0.269 OA
ATOM     11  C   UNL     1      23.000  -0.147  53.516  1.00  0.00     0.143 C 
ATOM     12  H   UNL     1      21.389   0.520  52.316  1.00  0.00     0.163 HD
ENDBRANCH   3   8
ENDBRANCH   1   2
BRANCH   1  13
ATOM     13  C   UNL     1      24.090   5.303  50.836  1.00  0.00     0.014 A 
ATOM     14  C   UNL     1      24.205   6.697  50.861  1.00  0.00     0.016 A 
ATOM     15  C   UNL     1      25.021   4.527  50.132  1.00  0.00     0.043 A 
ATOM     16  C   UNL     1      25.258   7.349  50.201  1.00  0.00     0.014 A 
ATOM     17  C   UNL     1      26.067   5.200  49.490  1.00  0.00     0.067 A 
ATOM     18  C   UNL     1      26.212   6.581  49.505  1.00  0.00     0.027 A 
ATOM     19  N   UNL     1      27.120   4.735  48.753  1.00  0.00    -0.277 N 
ATOM     20  C   UNL     1      27.392   6.835  48.738  1.00  0.00     0.093 A 
ATOM     21  N   UNL     1      27.936   5.694  48.291  1.00  0.00    -0.175 NA
ATOM     22  H   UNL     1      27.342   3.770  48.532  1.00  0.00     0.190 HD
BRANCH  20  23
ATOM     23  C   UNL     1      27.937   8.139  48.483  1.00  0.00     0.033 C 
ATOM     24  C   UNL     1      28.407   8.971  49.429  1.00  0.00     0.030 C 
BRANCH  24  25
ATOM     25  C   UNL     1      28.970  10.303  49.191  1.00  0.00     0.063 A 
ATOM     26  C   UNL     1      30.330  10.532  48.999  1.00  0.00     0.028 A 
ATOM     27  N   UNL     1      28.052  11.295  49.115  1.00  0.00    -0.257 NA
ATOM     28  C   UNL     1      30.766  11.831  48.740  1.00  0.00     0.004 A 
ATOM     29  C   UNL     1      28.502  12.544  48.865  1.00  0.00     0.111 A 
ATOM     30  C   UNL     1      29.836  12.860  48.674  1.00  0.00     0.020 A 
ENDBRANCH  24  25
ENDBRANCH  20  23
ENDBRANCH   1  13
TORSDOF 5
ENDMDL
