MODEL 1
REMARK minimizedAffinity -9.24380779
REMARK minimizedRMSD -1
REMARK SMILES COc1cc2ncnc(Nc3cccc(Cl)c3F)c2cc1OC(=O)N1CCN(C)C[C@H]1C
REMARK SMILES IDX 3 1 4 2 5 3 6 4 7 5 8 6 9 7 19 8 20 9 21 10 2 11 1 12 22 13
REMARK SMILES IDX 23 14 24 15 25 16 26 17 31 18 27 19 30 20 28 21 32 22 29 23
REMARK SMILES IDX 10 24 11 26 12 27 17 28 13 29 15 30 14 31 18 32 16 33
REMARK H PARENT 10 25
ROOT
ATOM      1  C   UNL     1      20.562   2.378  52.601  1.00  0.00     0.163 A 
ATOM      2  C   UNL     1      20.605   1.311  53.501  1.00  0.00     0.079 A 
ATOM      3  C   UNL     1      21.766   0.569  53.711  1.00  0.00     0.080 A 
ATOM      4  N   UNL     1      21.718  -0.440  54.585  1.00  0.00    -0.236 NA
ATOM      5  C   UNL     1      22.844  -1.140  54.759  1.00  0.00     0.224 A 
ATOM      6  N   UNL     1      24.013  -0.923  54.149  1.00  0.00    -0.219 NA
ATOM      7  C   UNL     1      24.062   0.105  53.282  1.00  0.00     0.141 A 
ATOM      8  C   UNL     1      22.932   0.899  53.002  1.00  0.00     0.047 A 
ATOM      9  C   UNL     1      22.898   1.964  52.075  1.00  0.00     0.065 A 
ATOM     10  C   UNL     1      21.726   2.695  51.902  1.00  0.00     0.175 A 
ENDROOT
BRANCH   1  11
ATOM     11  O   UNL     1      19.462   3.143  52.325  1.00  0.00    -0.493 OA
ATOM     12  C   UNL     1      18.448   2.554  51.522  1.00  0.00     0.278 C 
ENDBRANCH   1  11
BRANCH  10  13
ATOM     13  O   UNL     1      21.717   3.730  50.964  1.00  0.00    -0.406 OA
BRANCH  13  14
ATOM     14  C   UNL     1      22.455   4.837  51.372  1.00  0.00     0.415 C 
ATOM     15  O   UNL     1      22.314   5.402  52.453  1.00  0.00    -0.224 OA
BRANCH  14  16
ATOM     16  N   UNL     1      23.395   5.220  50.428  1.00  0.00    -0.303 N 
ATOM     17  C   UNL     1      23.621   4.384  49.256  1.00  0.00     0.139 C 
ATOM     18  C   UNL     1      24.373   6.299  50.651  1.00  0.00     0.099 C 
ATOM     19  C   UNL     1      25.063   3.836  49.219  1.00  0.00     0.106 C 
ATOM     20  C   UNL     1      25.612   6.164  49.718  1.00  0.00     0.109 C 
ATOM     21  N   UNL     1      26.106   4.780  49.680  1.00  0.00    -0.303 NA
ATOM     22  C   UNL     1      23.731   7.675  50.456  1.00  0.00     0.032 C 
ATOM     23  C   UNL     1      27.330   4.656  48.899  1.00  0.00     0.105 C 
ENDBRANCH  14  16
ENDBRANCH  13  14
ENDBRANCH  10  13
BRANCH   7  24
ATOM     24  N   UNL     1      25.288   0.403  52.631  1.00  0.00    -0.337 N 
ATOM     25  H   UNL     1      25.248   1.349  52.252  1.00  0.00     0.168 HD
BRANCH  24  26
ATOM     26  C   UNL     1      26.604   0.102  53.056  1.00  0.00     0.077 A 
ATOM     27  C   UNL     1      27.205  -1.145  52.843  1.00  0.00     0.029 A 
ATOM     28  C   UNL     1      27.392   1.122  53.614  1.00  0.00     0.165 A 
ATOM     29  C   UNL     1      28.531  -1.380  53.224  1.00  0.00     0.004 A 
ATOM     30  C   UNL     1      28.714   0.895  53.995  1.00  0.00     0.078 A 
ATOM     31  C   UNL     1      29.286  -0.361  53.805  1.00  0.00     0.024 A 
ATOM     32  F   UNL     1      26.838   2.336  53.786  1.00  0.00    -0.203 F 
ATOM     33  Cl  UNL     1      29.655   2.156  54.695  1.00  0.00    -0.081 Cl
ENDBRANCH  24  26
ENDBRANCH   7  24
TORSDOF 6
ENDMDL
MODEL 2
REMARK minimizedAffinity -9.11077595
REMARK minimizedRMSD -1
REMARK SMILES COc1cc2ncnc(Nc3cccc(Cl)c3F)c2cc1OC(=O)N1CCN(C)C[C@H]1C
REMARK SMILES IDX 3 1 4 2 5 3 6 4 7 5 8 6 9 7 19 8 20 9 21 10 2 11 1 12 22 13
REMARK SMILES IDX 23 14 24 15 25 16 26 17 31 18 27 19 30 20 28 21 32 22 29 23
REMARK SMILES IDX 10 24 11 26 12 27 17 28 13 29 15 30 14 31 18 32 16 33
REMARK H PARENT 10 25
ROOT
ATOM      1  C   UNL     1      20.265   0.240  52.821  1.00  0.00     0.163 A 
ATOM      2  C   UNL     1      20.705  -0.371  53.996  1.00  0.00     0.079 A 
ATOM      3  C   UNL     1      22.058  -0.581  54.257  1.00  0.00     0.080 A 
ATOM      4  N   UNL     1      22.393  -1.179  55.402  1.00  0.00    -0.236 NA
ATOM      5  C   UNL     1      23.698  -1.376  55.621  1.00  0.00     0.224 A 
ATOM      6  N   UNL     1      24.698  -1.025  54.807  1.00  0.00    -0.219 NA
ATOM      7  C   UNL     1      24.358  -0.408  53.661  1.00  0.00     0.141 A 
ATOM      8  C   UNL     1      23.013  -0.167  53.315  1.00  0.00     0.047 A 
ATOM      9  C   UNL     1      22.581   0.436  52.112  1.00  0.00     0.065 A 
ATOM     10  C   UNL     1      21.222   0.645  51.892  1.00  0.00     0.175 A 
ENDROOT
BRANCH   1  11
ATOM     11  O   UNL     1      18.958   0.466  52.482  1.00  0.00    -0.493 OA
ATOM     12  C   UNL     1      18.087  -0.657  52.473  1.00  0.00     0.278 C 
ENDBRANCH   1  11
BRANCH  10  13
ATOM     13  O   UNL     1      20.823   1.226  50.685  1.00  0.00    -0.406 OA
BRANCH  13  14
ATOM     14  C   UNL     1      21.730   2.169  50.212  1.00  0.00     0.415 C 
ATOM     15  O   UNL     1      22.551   1.955  49.324  1.00  0.00    -0.224 OA
BRANCH  14  16
ATOM     16  N   UNL     1      21.586   3.398  50.837  1.00  0.00    -0.303 N 
ATOM     17  C   UNL     1      20.265   4.001  50.943  1.00  0.00     0.139 C 
ATOM     18  C   UNL     1      22.724   4.265  51.189  1.00  0.00     0.099 C 
ATOM     19  C   UNL     1      20.191   5.342  50.181  1.00  0.00     0.106 C 
ATOM     20  C   UNL     1      22.293   5.752  51.358  1.00  0.00     0.109 C 
ATOM     21  N   UNL     1      21.408   6.180  50.265  1.00  0.00    -0.303 NA
ATOM     22  C   UNL     1      23.412   3.782  52.468  1.00  0.00     0.032 C 
ATOM     23  C   UNL     1      21.082   7.598  50.347  1.00  0.00     0.105 C 
ENDBRANCH  14  16
ENDBRANCH  13  14
ENDBRANCH  10  13
BRANCH   7  24
ATOM     24  N   UNL     1      25.381   0.017  52.774  1.00  0.00    -0.337 N 
ATOM     25  H   UNL     1      24.970   0.571  52.023  1.00  0.00     0.168 HD
BRANCH  24  26
ATOM     26  C   UNL     1      26.671   0.508  53.092  1.00  0.00     0.077 A 
ATOM     27  C   UNL     1      26.925   1.859  53.363  1.00  0.00     0.029 A 
ATOM     28  C   UNL     1      27.727  -0.403  53.258  1.00  0.00     0.165 A 
ATOM     29  C   UNL     1      28.203   2.290  53.736  1.00  0.00     0.004 A 
ATOM     30  C   UNL     1      29.002   0.020  53.630  1.00  0.00     0.078 A 
ATOM     31  C   UNL     1      29.245   1.372  53.865  1.00  0.00     0.024 A 
ATOM     32  F   UNL     1      27.485  -1.709  53.040  1.00  0.00    -0.203 F 
ATOM     33  Cl  UNL     1      30.287  -1.113  53.809  1.00  0.00    -0.081 Cl
ENDBRANCH  24  26
ENDBRANCH   7  24
TORSDOF 6
ENDMDL
MODEL 3
REMARK minimizedAffinity -9.03893948
REMARK minimizedRMSD -1
REMARK SMILES COc1cc2ncnc(Nc3cccc(Cl)c3F)c2cc1OC(=O)N1CCN(C)C[C@H]1C
REMARK SMILES IDX 3 1 4 2 5 3 6 4 7 5 8 6 9 7 19 8 20 9 21 10 2 11 1 12 22 13
REMARK SMILES IDX 23 14 24 15 25 16 26 17 31 18 27 19 30 20 28 21 32 22 29 23
REMARK SMILES IDX 10 24 11 26 12 27 17 28 13 29 15 30 14 31 18 32 16 33
REMARK H PARENT 10 25
ROOT
ATOM      1  C   UNL     1      20.115  -0.003  52.795  1.00  0.00     0.163 A 
ATOM      2  C   UNL     1      20.618  -0.637  53.933  1.00  0.00     0.079 A 
ATOM      3  C   UNL     1      21.987  -0.719  54.187  1.00  0.00     0.080 A 
ATOM      4  N   UNL     1      22.384  -1.348  55.295  1.00  0.00    -0.236 NA
ATOM      5  C   UNL     1      23.702  -1.420  55.508  1.00  0.00     0.224 A 
ATOM      6  N   UNL     1      24.659  -0.917  54.723  1.00  0.00    -0.219 NA
ATOM      7  C   UNL     1      24.254  -0.269  53.615  1.00  0.00     0.141 A 
ATOM      8  C   UNL     1      22.892  -0.150  53.277  1.00  0.00     0.047 A 
ATOM      9  C   UNL     1      22.397   0.478  52.112  1.00  0.00     0.065 A 
ATOM     10  C   UNL     1      21.023   0.557  51.898  1.00  0.00     0.175 A 
ENDROOT
BRANCH   1  11
ATOM     11  O   UNL     1      18.791   0.105  52.464  1.00  0.00    -0.493 OA
ATOM     12  C   UNL     1      17.932  -0.951  52.874  1.00  0.00     0.278 C 
ENDBRANCH   1  11
BRANCH  10  13
ATOM     13  O   UNL     1      20.564   1.166  50.728  1.00  0.00    -0.406 OA
BRANCH  13  14
ATOM     14  C   UNL     1      20.372   2.537  50.870  1.00  0.00     0.415 C 
ATOM     15  O   UNL     1      19.360   3.050  51.340  1.00  0.00    -0.224 OA
BRANCH  14  16
ATOM     16  N   UNL     1      21.471   3.268  50.446  1.00  0.00    -0.303 N 
ATOM     17  C   UNL     1      22.005   3.055  49.108  1.00  0.00     0.139 C 
ATOM     18  C   UNL     1      22.302   4.079  51.353  1.00  0.00     0.099 C 
ATOM     19  C   UNL     1      23.452   2.522  49.152  1.00  0.00     0.106 C 
ATOM     20  C   UNL     1      23.723   4.333  50.770  1.00  0.00     0.109 C 
ATOM     21  N   UNL     1      24.303   3.100  50.215  1.00  0.00    -0.303 NA
ATOM     22  C   UNL     1      21.631   5.417  51.669  1.00  0.00     0.032 C 
ATOM     23  C   UNL     1      25.675   3.295  49.764  1.00  0.00     0.105 C 
ENDBRANCH  14  16
ENDBRANCH  13  14
ENDBRANCH  10  13
BRANCH   7  24
ATOM     24  N   UNL     1      25.226   0.316  52.761  1.00  0.00    -0.337 N 
ATOM     25  H   UNL     1      24.782   1.025  52.179  1.00  0.00     0.168 HD
BRANCH  24  26
ATOM     26  C   UNL     1      26.553   0.700  53.075  1.00  0.00     0.077 A 
ATOM     27  C   UNL     1      26.906   2.017  53.397  1.00  0.00     0.029 A 
ATOM     28  C   UNL     1      27.543  -0.289  53.182  1.00  0.00     0.165 A 
ATOM     29  C   UNL     1      28.217   2.341  53.762  1.00  0.00     0.004 A 
ATOM     30  C   UNL     1      28.852   0.027  53.547  1.00  0.00     0.078 A 
ATOM     31  C   UNL     1      29.194   1.347  53.832  1.00  0.00     0.024 A 
ATOM     32  F   UNL     1      27.206  -1.564  52.915  1.00  0.00    -0.203 F 
ATOM     33  Cl  UNL     1      30.055  -1.200  53.653  1.00  0.00    -0.081 Cl
ENDBRANCH  24  26
ENDBRANCH   7  24
TORSDOF 6
ENDMDL
MODEL 4
REMARK minimizedAffinity -8.91642952
REMARK minimizedRMSD -1
REMARK SMILES COc1cc2ncnc(Nc3cccc(Cl)c3F)c2cc1OC(=O)N1CCN(C)C[C@H]1C
REMARK SMILES IDX 3 1 4 2 5 3 6 4 7 5 8 6 9 7 19 8 20 9 21 10 2 11 1 12 22 13
REMARK SMILES IDX 23 14 24 15 25 16 26 17 31 18 27 19 30 20 28 21 32 22 29 23
REMARK SMILES IDX 10 24 11 26 12 27 17 28 13 29 15 30 14 31 18 32 16 33
REMARK H PARENT 10 25
ROOT
ATOM      1  C   UNL     1      20.478   0.038  52.902  1.00  0.00     0.163 A 
ATOM      2  C   UNL     1      20.869  -0.608  54.076  1.00  0.00     0.079 A 
ATOM      3  C   UNL     1      22.211  -0.797  54.403  1.00  0.00     0.080 A 
ATOM      4  N   UNL     1      22.499  -1.431  55.542  1.00  0.00    -0.236 NA
ATOM      5  C   UNL     1      23.794  -1.605  55.824  1.00  0.00     0.224 A 
ATOM      6  N   UNL     1      24.827  -1.201  55.080  1.00  0.00    -0.219 NA
ATOM      7  C   UNL     1      24.534  -0.547  53.941  1.00  0.00     0.141 A 
ATOM      8  C   UNL     1      23.205  -0.324  53.531  1.00  0.00     0.047 A 
ATOM      9  C   UNL     1      22.823   0.315  52.330  1.00  0.00     0.065 A 
ATOM     10  C   UNL     1      21.474   0.501  52.043  1.00  0.00     0.175 A 
ENDROOT
BRANCH   1  11
ATOM     11  O   UNL     1      19.186   0.247  52.501  1.00  0.00    -0.493 OA
ATOM     12  C   UNL     1      18.281  -0.841  52.636  1.00  0.00     0.278 C 
ENDBRANCH   1  11
BRANCH  10  13
ATOM     13  O   UNL     1      21.125   1.118  50.839  1.00  0.00    -0.406 OA
BRANCH  13  14
ATOM     14  C   UNL     1      21.171   2.508  50.910  1.00  0.00     0.415 C 
ATOM     15  O   UNL     1      20.395   3.192  51.572  1.00  0.00    -0.224 OA
BRANCH  14  16
ATOM     16  N   UNL     1      22.214   3.039  50.169  1.00  0.00    -0.303 N 
ATOM     17  C   UNL     1      23.387   3.568  50.852  1.00  0.00     0.139 C 
ATOM     18  C   UNL     1      22.115   3.337  48.730  1.00  0.00     0.099 C 
ATOM     19  C   UNL     1      23.563   5.079  50.589  1.00  0.00     0.106 C 
ATOM     20  C   UNL     1      23.169   4.390  48.278  1.00  0.00     0.109 C 
ATOM     21  N   UNL     1      23.232   5.521  49.216  1.00  0.00    -0.303 NA
ATOM     22  C   UNL     1      22.268   2.066  47.891  1.00  0.00     0.032 C 
ATOM     23  C   UNL     1      24.133   6.568  48.753  1.00  0.00     0.105 C 
ENDBRANCH  14  16
ENDBRANCH  13  14
ENDBRANCH  10  13
BRANCH   7  24
ATOM     24  N   UNL     1      25.593  -0.065  53.128  1.00  0.00    -0.337 N 
ATOM     25  H   UNL     1      25.355   0.863  52.778  1.00  0.00     0.168 HD
BRANCH  24  26
ATOM     26  C   UNL     1      26.988  -0.157  53.356  1.00  0.00     0.077 A 
ATOM     27  C   UNL     1      27.739  -1.292  53.023  1.00  0.00     0.029 A 
ATOM     28  C   UNL     1      27.679   0.970  53.829  1.00  0.00     0.165 A 
ATOM     29  C   UNL     1      29.125  -1.317  53.207  1.00  0.00     0.004 A 
ATOM     30  C   UNL     1      29.061   0.952  54.014  1.00  0.00     0.078 A 
ATOM     31  C   UNL     1      29.788  -0.196  53.708  1.00  0.00     0.024 A 
ATOM     32  F   UNL     1      26.974   2.080  54.114  1.00  0.00    -0.203 F 
ATOM     33  Cl  UNL     1      29.885   2.340  54.613  1.00  0.00    -0.081 Cl
ENDBRANCH  24  26
ENDBRANCH   7  24
TORSDOF 6
ENDMDL
MODEL 5
REMARK minimizedAffinity -8.8813467
REMARK minimizedRMSD -1
REMARK SMILES COc1cc2ncnc(Nc3cccc(Cl)c3F)c2cc1OC(=O)N1CCN(C)C[C@H]1C
REMARK SMILES IDX 3 1 4 2 5 3 6 4 7 5 8 6 9 7 19 8 20 9 21 10 2 11 1 12 22 13
REMARK SMILES IDX 23 14 24 15 25 16 26 17 31 18 27 19 30 20 28 21 32 22 29 23
REMARK SMILES IDX 10 24 11 26 12 27 17 28 13 29 15 30 14 31 18 32 16 33
REMARK H PARENT 10 25
ROOT
ATOM      1  C   UNL     1      20.782   2.699  52.421  1.00  0.00     0.163 A 
ATOM      2  C   UNL     1      20.826   1.602  53.284  1.00  0.00     0.079 A 
ATOM      3  C   UNL     1      21.969   0.817  53.424  1.00  0.00     0.080 A 
ATOM      4  N   UNL     1      21.923  -0.217  54.266  1.00  0.00    -0.236 NA
ATOM      5  C   UNL     1      23.031  -0.958  54.372  1.00  0.00     0.224 A 
ATOM      6  N   UNL     1      24.181  -0.758  53.723  1.00  0.00    -0.219 NA
ATOM      7  C   UNL     1      24.230   0.296  52.887  1.00  0.00     0.141 A 
ATOM      8  C   UNL     1      23.116   1.133  52.679  1.00  0.00     0.047 A 
ATOM      9  C   UNL     1      23.081   2.229  51.787  1.00  0.00     0.065 A 
ATOM     10  C   UNL     1      21.927   3.002  51.685  1.00  0.00     0.175 A 
ENDROOT
BRANCH   1  11
ATOM     11  O   UNL     1      19.698   3.507  52.214  1.00  0.00    -0.493 OA
ATOM     12  C   UNL     1      18.587   2.939  51.533  1.00  0.00     0.278 C 
ENDBRANCH   1  11
BRANCH  10  13
ATOM     13  O   UNL     1      21.915   4.067  50.782  1.00  0.00    -0.406 OA
BRANCH  13  14
ATOM     14  C   UNL     1      22.883   3.947  49.790  1.00  0.00     0.415 C 
ATOM     15  O   UNL     1      22.767   3.241  48.791  1.00  0.00    -0.224 OA
BRANCH  14  16
ATOM     16  N   UNL     1      23.992   4.740  50.038  1.00  0.00    -0.303 N 
ATOM     17  C   UNL     1      23.870   5.894  50.919  1.00  0.00     0.139 C 
ATOM     18  C   UNL     1      25.245   4.644  49.268  1.00  0.00     0.099 C 
ATOM     19  C   UNL     1      24.159   7.213  50.171  1.00  0.00     0.106 C 
ATOM     20  C   UNL     1      26.088   5.950  49.361  1.00  0.00     0.109 C 
ATOM     21  N   UNL     1      25.250   7.143  49.173  1.00  0.00    -0.303 NA
ATOM     22  C   UNL     1      26.089   3.455  49.732  1.00  0.00     0.032 C 
ATOM     23  C   UNL     1      26.038   8.369  49.149  1.00  0.00     0.105 C 
ENDBRANCH  14  16
ENDBRANCH  13  14
ENDBRANCH  10  13
BRANCH   7  24
ATOM     24  N   UNL     1      25.438   0.576  52.196  1.00  0.00    -0.337 N 
ATOM     25  H   UNL     1      25.243   1.201  51.414  1.00  0.00     0.168 HD
BRANCH  24  26
ATOM     26  C   UNL     1      26.715   0.856  52.739  1.00  0.00     0.077 A 
ATOM     27  C   UNL     1      27.092   2.132  53.179  1.00  0.00     0.029 A 
ATOM     28  C   UNL     1      27.612  -0.203  52.957  1.00  0.00     0.165 A 
ATOM     29  C   UNL     1      28.342   2.350  53.768  1.00  0.00     0.004 A 
ATOM     30  C   UNL     1      28.859   0.008  53.544  1.00  0.00     0.078 A 
ATOM     31  C   UNL     1      29.230   1.289  53.947  1.00  0.00     0.024 A 
ATOM     32  F   UNL     1      27.245  -1.440  52.576  1.00  0.00    -0.203 F 
ATOM     33  Cl  UNL     1      29.950  -1.303  53.784  1.00  0.00    -0.081 Cl
ENDBRANCH  24  26
ENDBRANCH   7  24
TORSDOF 6
ENDMDL
MODEL 6
REMARK minimizedAffinity -8.6808939
REMARK minimizedRMSD -1
REMARK SMILES COc1cc2ncnc(Nc3cccc(Cl)c3F)c2cc1OC(=O)N1CCN(C)C[C@H]1C
REMARK SMILES IDX 3 1 4 2 5 3 6 4 7 5 8 6 9 7 19 8 20 9 21 10 2 11 1 12 22 13
REMARK SMILES IDX 23 14 24 15 25 16 26 17 31 18 27 19 30 20 28 21 32 22 29 23
REMARK SMILES IDX 10 24 11 26 12 27 17 28 13 29 15 30 14 31 18 32 16 33
REMARK H PARENT 10 25
ROOT
ATOM      1  C   UNL     1      21.599   0.202  53.722  1.00  0.00     0.163 A 
ATOM      2  C   UNL     1      20.713   1.266  53.546  1.00  0.00     0.079 A 
ATOM      3  C   UNL     1      20.860   2.186  52.509  1.00  0.00     0.080 A 
ATOM      4  N   UNL     1      19.972   3.178  52.417  1.00  0.00    -0.236 NA
ATOM      5  C   UNL     1      20.143   4.050  51.418  1.00  0.00     0.224 A 
ATOM      6  N   UNL     1      21.112   4.019  50.499  1.00  0.00    -0.219 NA
ATOM      7  C   UNL     1      21.995   3.008  50.584  1.00  0.00     0.141 A 
ATOM      8  C   UNL     1      21.927   2.043  51.608  1.00  0.00     0.047 A 
ATOM      9  C   UNL     1      22.842   0.980  51.784  1.00  0.00     0.065 A 
ATOM     10  C   UNL     1      22.656   0.071  52.821  1.00  0.00     0.175 A 
ENDROOT
BRANCH   1  11
ATOM     11  O   UNL     1      21.536  -0.730  54.721  1.00  0.00    -0.493 OA
ATOM     12  C   UNL     1      20.841  -1.938  54.439  1.00  0.00     0.278 C 
ENDBRANCH   1  11
BRANCH  10  13
ATOM     13  O   UNL     1      23.588  -0.957  52.983  1.00  0.00    -0.406 OA
BRANCH  13  14
ATOM     14  C   UNL     1      24.527  -0.686  53.973  1.00  0.00     0.415 C 
ATOM     15  O   UNL     1      24.365  -0.927  55.166  1.00  0.00    -0.224 OA
BRANCH  14  16
ATOM     16  N   UNL     1      25.690  -0.135  53.457  1.00  0.00    -0.303 N 
ATOM     17  C   UNL     1      26.462  -0.877  52.469  1.00  0.00     0.139 C 
ATOM     18  C   UNL     1      26.345   1.055  54.028  1.00  0.00     0.099 C 
ATOM     19  C   UNL     1      27.873  -1.221  52.991  1.00  0.00     0.106 C 
ATOM     20  C   UNL     1      27.851   1.134  53.642  1.00  0.00     0.109 C 
ATOM     21  N   UNL     1      28.515  -0.167  53.808  1.00  0.00    -0.303 NA
ATOM     22  C   UNL     1      25.635   2.338  53.591  1.00  0.00     0.032 C 
ATOM     23  C   UNL     1      29.948  -0.087  53.556  1.00  0.00     0.105 C 
ENDBRANCH  14  16
ENDBRANCH  13  14
ENDBRANCH  10  13
BRANCH   7  24
ATOM     24  N   UNL     1      23.026   2.906  49.613  1.00  0.00    -0.337 N 
ATOM     25  H   UNL     1      22.610   2.823  48.685  1.00  0.00     0.168 HD
BRANCH  24  26
ATOM     26  C   UNL     1      24.240   3.632  49.540  1.00  0.00     0.077 A 
ATOM     27  C   UNL     1      25.470   3.097  49.943  1.00  0.00     0.029 A 
ATOM     28  C   UNL     1      24.242   4.899  48.936  1.00  0.00     0.165 A 
ATOM     29  C   UNL     1      26.655   3.827  49.795  1.00  0.00     0.004 A 
ATOM     30  C   UNL     1      25.420   5.632  48.785  1.00  0.00     0.078 A 
ATOM     31  C   UNL     1      26.631   5.098  49.220  1.00  0.00     0.024 A 
ATOM     32  F   UNL     1      23.072   5.407  48.509  1.00  0.00    -0.203 F 
ATOM     33  Cl  UNL     1      25.396   7.193  48.059  1.00  0.00    -0.081 Cl
ENDBRANCH  24  26
ENDBRANCH   7  24
TORSDOF 6
ENDMDL
MODEL 7
REMARK minimizedAffinity -8.57862759
REMARK minimizedRMSD -1
REMARK SMILES COc1cc2ncnc(Nc3cccc(Cl)c3F)c2cc1OC(=O)N1CCN(C)C[C@H]1C
REMARK SMILES IDX 3 1 4 2 5 3 6 4 7 5 8 6 9 7 19 8 20 9 21 10 2 11 1 12 22 13
REMARK SMILES IDX 23 14 24 15 25 16 26 17 31 18 27 19 30 20 28 21 32 22 29 23
REMARK SMILES IDX 10 24 11 26 12 27 17 28 13 29 15 30 14 31 18 32 16 33
REMARK H PARENT 10 25
ROOT
ATOM      1  C   UNL     1      21.838   3.502  51.684  1.00  0.00     0.163 A 
ATOM      2  C   UNL     1      21.511   2.409  52.489  1.00  0.00     0.079 A 
ATOM      3  C   UNL     1      22.424   1.389  52.754  1.00  0.00     0.080 A 
ATOM      4  N   UNL     1      22.028   0.376  53.528  1.00  0.00    -0.236 NA
ATOM      5  C   UNL     1      22.922  -0.593  53.757  1.00  0.00     0.224 A 
ATOM      6  N   UNL     1      24.173  -0.640  53.292  1.00  0.00    -0.219 NA
ATOM      7  C   UNL     1      24.574   0.391  52.526  1.00  0.00     0.141 A 
ATOM      8  C   UNL     1      23.712   1.456  52.200  1.00  0.00     0.047 A 
ATOM      9  C   UNL     1      24.050   2.548  51.369  1.00  0.00     0.065 A 
ATOM     10  C   UNL     1      23.120   3.558  51.139  1.00  0.00     0.175 A 
ENDROOT
BRANCH   1  11
ATOM     11  O   UNL     1      20.997   4.533  51.362  1.00  0.00    -0.493 OA
ATOM     12  C   UNL     1      19.692   4.189  50.915  1.00  0.00     0.278 C 
ENDBRANCH   1  11
BRANCH  10  13
ATOM     13  O   UNL     1      23.475   4.614  50.297  1.00  0.00    -0.406 OA
BRANCH  13  14
ATOM     14  C   UNL     1      24.180   5.617  50.955  1.00  0.00     0.415 C 
ATOM     15  O   UNL     1      23.895   6.047  52.070  1.00  0.00    -0.224 OA
BRANCH  14  16
ATOM     16  N   UNL     1      25.269   6.063  50.222  1.00  0.00    -0.303 N 
ATOM     17  C   UNL     1      25.738   7.432  50.388  1.00  0.00     0.139 C 
ATOM     18  C   UNL     1      25.840   5.317  49.087  1.00  0.00     0.099 C 
ATOM     19  C   UNL     1      25.610   8.239  49.078  1.00  0.00     0.106 C 
ATOM     20  C   UNL     1      26.649   6.240  48.130  1.00  0.00     0.109 C 
ATOM     21  N   UNL     1      25.920   7.484  47.843  1.00  0.00    -0.303 NA
ATOM     22  C   UNL     1      26.734   4.173  49.572  1.00  0.00     0.032 C 
ATOM     23  C   UNL     1      26.612   8.312  46.864  1.00  0.00     0.105 C 
ENDBRANCH  14  16
ENDBRANCH  13  14
ENDBRANCH  10  13
BRANCH   7  24
ATOM     24  N   UNL     1      25.905   0.410  52.033  1.00  0.00    -0.337 N 
ATOM     25  H   UNL     1      26.031   1.222  51.430  1.00  0.00     0.168 HD
BRANCH  24  26
ATOM     26  C   UNL     1      27.105   0.129  52.732  1.00  0.00     0.077 A 
ATOM     27  C   UNL     1      27.695  -1.141  52.749  1.00  0.00     0.029 A 
ATOM     28  C   UNL     1      27.802   1.184  53.342  1.00  0.00     0.165 A 
ATOM     29  C   UNL     1      28.914  -1.359  53.400  1.00  0.00     0.004 A 
ATOM     30  C   UNL     1      29.019   0.974  53.991  1.00  0.00     0.078 A 
ATOM     31  C   UNL     1      29.576  -0.303  54.026  1.00  0.00     0.024 A 
ATOM     32  F   UNL     1      27.265   2.417  53.297  1.00  0.00    -0.203 F 
ATOM     33  Cl  UNL     1      29.847   2.279  54.749  1.00  0.00    -0.081 Cl
ENDBRANCH  24  26
ENDBRANCH   7  24
TORSDOF 6
ENDMDL
MODEL 8
REMARK minimizedAffinity -8.56920242
REMARK minimizedRMSD -1
REMARK SMILES COc1cc2ncnc(Nc3cccc(Cl)c3F)c2cc1OC(=O)N1CCN(C)C[C@H]1C
REMARK SMILES IDX 3 1 4 2 5 3 6 4 7 5 8 6 9 7 19 8 20 9 21 10 2 11 1 12 22 13
REMARK SMILES IDX 23 14 24 15 25 16 26 17 31 18 27 19 30 20 28 21 32 22 29 23
REMARK SMILES IDX 10 24 11 26 12 27 17 28 13 29 15 30 14 31 18 32 16 33
REMARK H PARENT 10 25
ROOT
ATOM      1  C   UNL     1      24.457   4.826  49.922  1.00  0.00     0.163 A 
ATOM      2  C   UNL     1      23.473   4.993  48.946  1.00  0.00     0.079 A 
ATOM      3  C   UNL     1      22.518   4.012  48.684  1.00  0.00     0.080 A 
ATOM      4  N   UNL     1      21.617   4.249  47.728  1.00  0.00    -0.236 NA
ATOM      5  C   UNL     1      20.720   3.286  47.493  1.00  0.00     0.224 A 
ATOM      6  N   UNL     1      20.634   2.113  48.127  1.00  0.00    -0.219 NA
ATOM      7  C   UNL     1      21.534   1.884  49.101  1.00  0.00     0.141 A 
ATOM      8  C   UNL     1      22.539   2.817  49.422  1.00  0.00     0.047 A 
ATOM      9  C   UNL     1      23.540   2.627  50.400  1.00  0.00     0.065 A 
ATOM     10  C   UNL     1      24.468   3.635  50.647  1.00  0.00     0.175 A 
ENDROOT
BRANCH   1  11
ATOM     11  O   UNL     1      25.438   5.730  50.227  1.00  0.00    -0.493 OA
ATOM     12  C   UNL     1      25.022   7.042  50.584  1.00  0.00     0.278 C 
ENDBRANCH   1  11
BRANCH  10  13
ATOM     13  O   UNL     1      25.459   3.411  51.606  1.00  0.00    -0.406 OA
BRANCH  13  14
ATOM     14  C   UNL     1      26.444   2.530  51.172  1.00  0.00     0.415 C 
ATOM     15  O   UNL     1      26.979   2.580  50.068  1.00  0.00    -0.224 OA
BRANCH  14  16
ATOM     16  N   UNL     1      26.781   1.598  52.141  1.00  0.00    -0.303 N 
ATOM     17  C   UNL     1      26.524   0.184  51.901  1.00  0.00     0.139 C 
ATOM     18  C   UNL     1      27.157   1.962  53.518  1.00  0.00     0.099 C 
ATOM     19  C   UNL     1      25.515  -0.391  52.918  1.00  0.00     0.106 C 
ATOM     20  C   UNL     1      26.952   0.780  54.511  1.00  0.00     0.109 C 
ATOM     21  N   UNL     1      25.654   0.123  54.299  1.00  0.00    -0.303 NA
ATOM     22  C   UNL     1      28.609   2.442  53.586  1.00  0.00     0.032 C 
ATOM     23  C   UNL     1      25.397  -0.915  55.289  1.00  0.00     0.105 C 
ENDBRANCH  14  16
ENDBRANCH  13  14
ENDBRANCH  10  13
BRANCH   7  24
ATOM     24  N   UNL     1      21.468   0.668  49.831  1.00  0.00    -0.337 N 
ATOM     25  H   UNL     1      22.408   0.288  49.941  1.00  0.00     0.168 HD
BRANCH  24  26
ATOM     26  C   UNL     1      20.684   0.370  50.972  1.00  0.00     0.077 A 
ATOM     27  C   UNL     1      19.287   0.279  50.932  1.00  0.00     0.029 A 
ATOM     28  C   UNL     1      21.329   0.037  52.175  1.00  0.00     0.165 A 
ATOM     29  C   UNL     1      18.557  -0.080  52.070  1.00  0.00     0.004 A 
ATOM     30  C   UNL     1      20.606  -0.323  53.312  1.00  0.00     0.078 A 
ATOM     31  C   UNL     1      19.215  -0.377  53.264  1.00  0.00     0.024 A 
ATOM     32  F   UNL     1      22.673   0.081  52.214  1.00  0.00    -0.203 F 
ATOM     33  Cl  UNL     1      21.417  -0.708  54.782  1.00  0.00    -0.081 Cl
ENDBRANCH  24  26
ENDBRANCH   7  24
TORSDOF 6
ENDMDL
MODEL 9
REMARK minimizedAffinity -8.5513916
REMARK minimizedRMSD -1
REMARK SMILES COc1cc2ncnc(Nc3cccc(Cl)c3F)c2cc1OC(=O)N1CCN(C)C[C@H]1C
REMARK SMILES IDX 3 1 4 2 5 3 6 4 7 5 8 6 9 7 19 8 20 9 21 10 2 11 1 12 22 13
REMARK SMILES IDX 23 14 24 15 25 16 26 17 31 18 27 19 30 20 28 21 32 22 29 23
REMARK SMILES IDX 10 24 11 26 12 27 17 28 13 29 15 30 14 31 18 32 16 33
REMARK H PARENT 10 25
ROOT
ATOM      1  C   UNL     1      22.873   0.591  53.175  1.00  0.00     0.163 A 
ATOM      2  C   UNL     1      24.176   0.575  53.676  1.00  0.00     0.079 A 
ATOM      3  C   UNL     1      25.237   1.167  52.992  1.00  0.00     0.080 A 
ATOM      4  N   UNL     1      26.453   1.100  53.539  1.00  0.00    -0.236 NA
ATOM      5  C   UNL     1      27.453   1.668  52.855  1.00  0.00     0.224 A 
ATOM      6  N   UNL     1      27.351   2.300  51.683  1.00  0.00    -0.219 NA
ATOM      7  C   UNL     1      26.121   2.380  51.143  1.00  0.00     0.141 A 
ATOM      8  C   UNL     1      24.996   1.800  51.763  1.00  0.00     0.047 A 
ATOM      9  C   UNL     1      23.685   1.807  51.234  1.00  0.00     0.065 A 
ATOM     10  C   UNL     1      22.646   1.222  51.952  1.00  0.00     0.175 A 
ENDROOT
BRANCH   1  11
ATOM     11  O   UNL     1      21.783   0.021  53.774  1.00  0.00    -0.493 OA
ATOM     12  C   UNL     1      22.030  -0.921  54.809  1.00  0.00     0.278 C 
ENDBRANCH   1  11
BRANCH  10  13
ATOM     13  O   UNL     1      21.365   1.227  51.396  1.00  0.00    -0.406 OA
BRANCH  13  14
ATOM     14  C   UNL     1      20.689   2.426  51.604  1.00  0.00     0.415 C 
ATOM     15  O   UNL     1      20.263   2.801  52.693  1.00  0.00    -0.224 OA
BRANCH  14  16
ATOM     16  N   UNL     1      20.573   3.172  50.442  1.00  0.00    -0.303 N 
ATOM     17  C   UNL     1      19.736   2.686  49.354  1.00  0.00     0.139 C 
ATOM     18  C   UNL     1      21.444   4.317  50.125  1.00  0.00     0.099 C 
ATOM     19  C   UNL     1      20.562   2.413  48.079  1.00  0.00     0.106 C 
ATOM     20  C   UNL     1      21.482   4.617  48.598  1.00  0.00     0.109 C 
ATOM     21  N   UNL     1      21.647   3.384  47.814  1.00  0.00    -0.303 NA
ATOM     22  C   UNL     1      21.004   5.572  50.883  1.00  0.00     0.032 C 
ATOM     23  C   UNL     1      21.794   3.654  46.390  1.00  0.00     0.105 C 
ENDBRANCH  14  16
ENDBRANCH  13  14
ENDBRANCH  10  13
BRANCH   7  24
ATOM     24  N   UNL     1      25.948   3.071  49.915  1.00  0.00    -0.337 N 
ATOM     25  H   UNL     1      25.017   2.877  49.546  1.00  0.00     0.168 HD
BRANCH  24  26
ATOM     26  C   UNL     1      26.338   4.392  49.588  1.00  0.00     0.077 A 
ATOM     27  C   UNL     1      27.424   4.679  48.751  1.00  0.00     0.029 A 
ATOM     28  C   UNL     1      25.543   5.466  50.022  1.00  0.00     0.165 A 
ATOM     29  C   UNL     1      27.736   5.998  48.403  1.00  0.00     0.004 A 
ATOM     30  C   UNL     1      25.848   6.783  49.678  1.00  0.00     0.078 A 
ATOM     31  C   UNL     1      26.951   7.052  48.870  1.00  0.00     0.024 A 
ATOM     32  F   UNL     1      24.474   5.199  50.793  1.00  0.00    -0.203 F 
ATOM     33  Cl  UNL     1      24.871   8.085  50.237  1.00  0.00    -0.081 Cl
ENDBRANCH  24  26
ENDBRANCH   7  24
TORSDOF 6
ENDMDL
MODEL 10
REMARK minimizedAffinity -8.3986969
REMARK minimizedRMSD -1
REMARK SMILES COc1cc2ncnc(Nc3cccc(Cl)c3F)c2cc1OC(=O)N1CCN(C)C[C@H]1C
REMARK SMILES IDX 3 1 4 2 5 3 6 4 7 5 8 6 9 7 19 8 20 9 21 10 2 11 1 12 22 13
REMARK SMILES IDX 23 14 24 15 25 16 26 17 31 18 27 19 30 20 28 21 32 22 29 23
REMARK SMILES IDX 10 24 11 26 12 27 17 28 13 29 15 30 14 31 18 32 16 33
REMARK H PARENT 10 25
ROOT
ATOM      1  C   UNL     1      21.763   0.233  52.144  1.00  0.00     0.163 A 
ATOM      2  C   UNL     1      21.240   0.414  50.862  1.00  0.00     0.079 A 
ATOM      3  C   UNL     1      21.842   1.259  49.931  1.00  0.00     0.080 A 
ATOM      4  N   UNL     1      21.273   1.380  48.730  1.00  0.00    -0.236 NA
ATOM      5  C   UNL     1      21.867   2.204  47.861  1.00  0.00     0.224 A 
ATOM      6  N   UNL     1      22.979   2.913  48.077  1.00  0.00    -0.219 NA
ATOM      7  C   UNL     1      23.560   2.777  49.283  1.00  0.00     0.141 A 
ATOM      8  C   UNL     1      23.011   1.952  50.285  1.00  0.00     0.047 A 
ATOM      9  C   UNL     1      23.541   1.793  51.586  1.00  0.00     0.065 A 
ATOM     10  C   UNL     1      22.923   0.928  52.484  1.00  0.00     0.175 A 
ENDROOT
BRANCH   1  11
ATOM     11  O   UNL     1      21.225  -0.562  53.119  1.00  0.00    -0.493 OA
ATOM     12  C   UNL     1      19.842  -0.396  53.401  1.00  0.00     0.278 C 
ENDBRANCH   1  11
BRANCH  10  13
ATOM     13  O   UNL     1      23.459   0.806  53.769  1.00  0.00    -0.406 OA
BRANCH  13  14
ATOM     14  C   UNL     1      24.313  -0.285  53.898  1.00  0.00     0.415 C 
ATOM     15  O   UNL     1      23.967  -1.391  54.306  1.00  0.00    -0.224 OA
BRANCH  14  16
ATOM     16  N   UNL     1      25.604   0.006  53.485  1.00  0.00    -0.303 N 
ATOM     17  C   UNL     1      26.214  -0.780  52.422  1.00  0.00     0.139 C 
ATOM     18  C   UNL     1      26.507   0.905  54.225  1.00  0.00     0.099 C 
ATOM     19  C   UNL     1      27.461  -1.541  52.922  1.00  0.00     0.106 C 
ATOM     20  C   UNL     1      28.002   0.639  53.884  1.00  0.00     0.109 C 
ATOM     21  N   UNL     1      28.304  -0.800  53.885  1.00  0.00    -0.303 NA
ATOM     22  C   UNL     1      26.171   2.373  53.951  1.00  0.00     0.032 C 
ATOM     23  C   UNL     1      29.722  -1.063  53.675  1.00  0.00     0.105 C 
ENDBRANCH  14  16
ENDBRANCH  13  14
ENDBRANCH  10  13
BRANCH   7  24
ATOM     24  N   UNL     1      24.762   3.480  49.556  1.00  0.00    -0.337 N 
ATOM     25  H   UNL     1      25.503   3.131  48.948  1.00  0.00     0.168 HD
BRANCH  24  26
ATOM     26  C   UNL     1      24.936   4.865  49.792  1.00  0.00     0.077 A 
ATOM     27  C   UNL     1      24.112   5.598  50.656  1.00  0.00     0.029 A 
ATOM     28  C   UNL     1      26.045   5.519  49.232  1.00  0.00     0.165 A 
ATOM     29  C   UNL     1      24.358   6.952  50.909  1.00  0.00     0.004 A 
ATOM     30  C   UNL     1      26.296   6.869  49.481  1.00  0.00     0.078 A 
ATOM     31  C   UNL     1      25.448   7.590  50.318  1.00  0.00     0.024 A 
ATOM     32  F   UNL     1      26.867   4.816  48.432  1.00  0.00    -0.203 F 
ATOM     33  Cl  UNL     1      27.652   7.655  48.767  1.00  0.00    -0.081 Cl
ENDBRANCH  24  26
ENDBRANCH   7  24
TORSDOF 6
ENDMDL
MODEL 11
REMARK minimizedAffinity -8.32029629
REMARK minimizedRMSD -1
REMARK SMILES COc1cc2ncnc(Nc3cccc(Cl)c3F)c2cc1OC(=O)N1CCN(C)C[C@H]1C
REMARK SMILES IDX 3 1 4 2 5 3 6 4 7 5 8 6 9 7 19 8 20 9 21 10 2 11 1 12 22 13
REMARK SMILES IDX 23 14 24 15 25 16 26 17 31 18 27 19 30 20 28 21 32 22 29 23
REMARK SMILES IDX 10 24 11 26 12 27 17 28 13 29 15 30 14 31 18 32 16 33
REMARK H PARENT 10 25
ROOT
ATOM      1  C   UNL     1      22.120   4.409  49.340  1.00  0.00     0.163 A 
ATOM      2  C   UNL     1      23.395   4.881  49.022  1.00  0.00     0.079 A 
ATOM      3  C   UNL     1      24.550   4.280  49.520  1.00  0.00     0.080 A 
ATOM      4  N   UNL     1      25.730   4.799  49.172  1.00  0.00    -0.236 NA
ATOM      5  C   UNL     1      26.820   4.207  49.672  1.00  0.00     0.224 A 
ATOM      6  N   UNL     1      26.842   3.143  50.479  1.00  0.00    -0.219 NA
ATOM      7  C   UNL     1      25.652   2.612  50.815  1.00  0.00     0.141 A 
ATOM      8  C   UNL     1      24.437   3.165  50.365  1.00  0.00     0.047 A 
ATOM      9  C   UNL     1      23.152   2.687  50.710  1.00  0.00     0.065 A 
ATOM     10  C   UNL     1      22.020   3.302  50.181  1.00  0.00     0.175 A 
ENDROOT
BRANCH   1  11
ATOM     11  O   UNL     1      20.940   4.951  48.909  1.00  0.00    -0.493 OA
ATOM     12  C   UNL     1      20.465   6.100  49.598  1.00  0.00     0.278 C 
ENDBRANCH   1  11
BRANCH  10  13
ATOM     13  O   UNL     1      20.763   2.820  50.555  1.00  0.00    -0.406 OA
BRANCH  13  14
ATOM     14  C   UNL     1      20.673   2.539  51.915  1.00  0.00     0.415 C 
ATOM     15  O   UNL     1      20.685   3.390  52.800  1.00  0.00    -0.224 OA
BRANCH  14  16
ATOM     16  N   UNL     1      20.539   1.182  52.164  1.00  0.00    -0.303 N 
ATOM     17  C   UNL     1      19.818   0.344  51.216  1.00  0.00     0.139 C 
ATOM     18  C   UNL     1      20.863   0.561  53.460  1.00  0.00     0.099 C 
ATOM     19  C   UNL     1      18.562  -0.285  51.854  1.00  0.00     0.106 C 
ATOM     20  C   UNL     1      20.134  -0.801  53.653  1.00  0.00     0.109 C 
ATOM     21  N   UNL     1      18.719  -0.711  53.263  1.00  0.00    -0.303 NA
ATOM     22  C   UNL     1      22.372   0.361  53.614  1.00  0.00     0.032 C 
ATOM     23  C   UNL     1      17.994  -1.945  53.538  1.00  0.00     0.105 C 
ENDBRANCH  14  16
ENDBRANCH  13  14
ENDBRANCH  10  13
BRANCH   7  24
ATOM     24  N   UNL     1      25.617   1.459  51.642  1.00  0.00    -0.337 N 
ATOM     25  H   UNL     1      25.170   0.694  51.138  1.00  0.00     0.168 HD
BRANCH  24  26
ATOM     26  C   UNL     1      26.633   0.958  52.492  1.00  0.00     0.077 A 
ATOM     27  C   UNL     1      27.183   1.704  53.542  1.00  0.00     0.029 A 
ATOM     28  C   UNL     1      27.033  -0.382  52.361  1.00  0.00     0.165 A 
ATOM     29  C   UNL     1      28.140   1.147  54.397  1.00  0.00     0.004 A 
ATOM     30  C   UNL     1      27.985  -0.944  53.211  1.00  0.00     0.078 A 
ATOM     31  C   UNL     1      28.546  -0.178  54.230  1.00  0.00     0.024 A 
ATOM     32  F   UNL     1      26.481  -1.122  51.382  1.00  0.00    -0.203 F 
ATOM     33  Cl  UNL     1      28.474  -2.584  53.019  1.00  0.00    -0.081 Cl
ENDBRANCH  24  26
ENDBRANCH   7  24
TORSDOF 6
ENDMDL
MODEL 12
REMARK minimizedAffinity -8.30367565
REMARK minimizedRMSD -1
REMARK SMILES COc1cc2ncnc(Nc3cccc(Cl)c3F)c2cc1OC(=O)N1CCN(C)C[C@H]1C
REMARK SMILES IDX 3 1 4 2 5 3 6 4 7 5 8 6 9 7 19 8 20 9 21 10 2 11 1 12 22 13
REMARK SMILES IDX 23 14 24 15 25 16 26 17 31 18 27 19 30 20 28 21 32 22 29 23
REMARK SMILES IDX 10 24 11 26 12 27 17 28 13 29 15 30 14 31 18 32 16 33
REMARK H PARENT 10 25
ROOT
ATOM      1  C   UNL     1      21.928   1.001  50.990  1.00  0.00     0.163 A 
ATOM      2  C   UNL     1      21.562   1.116  49.648  1.00  0.00     0.079 A 
ATOM      3  C   UNL     1      21.910   2.226  48.880  1.00  0.00     0.080 A 
ATOM      4  N   UNL     1      21.514   2.258  47.605  1.00  0.00    -0.236 NA
ATOM      5  C   UNL     1      21.854   3.340  46.896  1.00  0.00     0.224 A 
ATOM      6  N   UNL     1      22.557   4.387  47.338  1.00  0.00    -0.219 NA
ATOM      7  C   UNL     1      22.968   4.344  48.618  1.00  0.00     0.141 A 
ATOM      8  C   UNL     1      22.651   3.264  49.466  1.00  0.00     0.047 A 
ATOM      9  C   UNL     1      23.011   3.171  50.830  1.00  0.00     0.065 A 
ATOM     10  C   UNL     1      22.662   2.040  51.562  1.00  0.00     0.175 A 
ENDROOT
BRANCH   1  11
ATOM     11  O   UNL     1      21.612  -0.044  51.815  1.00  0.00    -0.493 OA
ATOM     12  C   UNL     1      20.330  -0.021  52.429  1.00  0.00     0.278 C 
ENDBRANCH   1  11
BRANCH  10  13
ATOM     13  O   UNL     1      23.015   1.984  52.913  1.00  0.00    -0.406 OA
BRANCH  13  14
ATOM     14  C   UNL     1      24.237   2.594  53.179  1.00  0.00     0.415 C 
ATOM     15  O   UNL     1      24.366   3.771  53.505  1.00  0.00    -0.224 OA
BRANCH  14  16
ATOM     16  N   UNL     1      25.301   1.713  53.063  1.00  0.00    -0.303 N 
ATOM     17  C   UNL     1      25.236   0.415  53.722  1.00  0.00     0.139 C 
ATOM     18  C   UNL     1      26.615   2.099  52.521  1.00  0.00     0.099 C 
ATOM     19  C   UNL     1      26.339   0.266  54.791  1.00  0.00     0.106 C 
ATOM     20  C   UNL     1      27.746   1.138  52.993  1.00  0.00     0.109 C 
ATOM     21  N   UNL     1      27.646   0.862  54.434  1.00  0.00    -0.303 NA
ATOM     22  C   UNL     1      26.589   2.146  50.991  1.00  0.00     0.032 C 
ATOM     23  C   UNL     1      28.758   0.053  54.916  1.00  0.00     0.105 C 
ENDBRANCH  14  16
ENDBRANCH  13  14
ENDBRANCH  10  13
BRANCH   7  24
ATOM     24  N   UNL     1      23.747   5.413  49.131  1.00  0.00    -0.337 N 
ATOM     25  H   UNL     1      23.550   5.529  50.125  1.00  0.00     0.168 HD
BRANCH  24  26
ATOM     26  C   UNL     1      25.103   5.719  48.863  1.00  0.00     0.077 A 
ATOM     27  C   UNL     1      26.141   4.795  49.039  1.00  0.00     0.029 A 
ATOM     28  C   UNL     1      25.423   6.960  48.287  1.00  0.00     0.165 A 
ATOM     29  C   UNL     1      27.459   5.119  48.702  1.00  0.00     0.004 A 
ATOM     30  C   UNL     1      26.735   7.289  47.948  1.00  0.00     0.078 A 
ATOM     31  C   UNL     1      27.759   6.369  48.160  1.00  0.00     0.024 A 
ATOM     32  F   UNL     1      24.429   7.842  48.076  1.00  0.00    -0.203 F 
ATOM     33  Cl  UNL     1      27.105   8.824  47.261  1.00  0.00    -0.081 Cl
ENDBRANCH  24  26
ENDBRANCH   7  24
TORSDOF 6
ENDMDL
MODEL 13
REMARK minimizedAffinity -8.2734766
REMARK minimizedRMSD -1
REMARK SMILES COc1cc2ncnc(Nc3cccc(Cl)c3F)c2cc1OC(=O)N1CCN(C)C[C@H]1C
REMARK SMILES IDX 3 1 4 2 5 3 6 4 7 5 8 6 9 7 19 8 20 9 21 10 2 11 1 12 22 13
REMARK SMILES IDX 23 14 24 15 25 16 26 17 31 18 27 19 30 20 28 21 32 22 29 23
REMARK SMILES IDX 10 24 11 26 12 27 17 28 13 29 15 30 14 31 18 32 16 33
REMARK H PARENT 10 25
ROOT
ATOM      1  C   UNL     1      22.385   0.885  52.534  1.00  0.00     0.163 A 
ATOM      2  C   UNL     1      21.463   1.579  51.749  1.00  0.00     0.079 A 
ATOM      3  C   UNL     1      21.736   2.846  51.236  1.00  0.00     0.080 A 
ATOM      4  N   UNL     1      20.796   3.443  50.500  1.00  0.00    -0.236 NA
ATOM      5  C   UNL     1      21.083   4.662  50.030  1.00  0.00     0.224 A 
ATOM      6  N   UNL     1      22.221   5.336  50.220  1.00  0.00    -0.219 NA
ATOM      7  C   UNL     1      23.172   4.724  50.948  1.00  0.00     0.141 A 
ATOM      8  C   UNL     1      22.974   3.449  51.512  1.00  0.00     0.047 A 
ATOM      9  C   UNL     1      23.910   2.765  52.322  1.00  0.00     0.065 A 
ATOM     10  C   UNL     1      23.610   1.494  52.803  1.00  0.00     0.175 A 
ENDROOT
BRANCH   1  11
ATOM     11  O   UNL     1      22.188  -0.351  53.088  1.00  0.00    -0.493 OA
ATOM     12  C   UNL     1      21.420  -0.411  54.283  1.00  0.00     0.278 C 
ENDBRANCH   1  11
BRANCH  10  13
ATOM     13  O   UNL     1      24.546   0.850  53.617  1.00  0.00    -0.406 OA
BRANCH  13  14
ATOM     14  C   UNL     1      25.710   1.592  53.794  1.00  0.00     0.415 C 
ATOM     15  O   UNL     1      25.756   2.685  54.353  1.00  0.00    -0.224 OA
BRANCH  14  16
ATOM     16  N   UNL     1      26.828   0.945  53.293  1.00  0.00    -0.303 N 
ATOM     17  C   UNL     1      26.676  -0.035  52.226  1.00  0.00     0.139 C 
ATOM     18  C   UNL     1      28.151   0.994  53.941  1.00  0.00     0.099 C 
ATOM     19  C   UNL     1      27.120  -1.442  52.678  1.00  0.00     0.106 C 
ATOM     20  C   UNL     1      29.051  -0.204  53.520  1.00  0.00     0.109 C 
ATOM     21  N   UNL     1      28.309  -1.472  53.560  1.00  0.00    -0.303 NA
ATOM     22  C   UNL     1      28.869   2.310  53.630  1.00  0.00     0.032 C 
ATOM     23  C   UNL     1      29.163  -2.618  53.274  1.00  0.00     0.105 C 
ENDBRANCH  14  16
ENDBRANCH  13  14
ENDBRANCH  10  13
BRANCH   7  24
ATOM     24  N   UNL     1      24.415   5.380  51.153  1.00  0.00    -0.337 N 
ATOM     25  H   UNL     1      24.761   5.164  52.088  1.00  0.00     0.168 HD
BRANCH  24  26
ATOM     26  C   UNL     1      25.497   5.513  50.250  1.00  0.00     0.077 A 
ATOM     27  C   UNL     1      26.191   4.414  49.727  1.00  0.00     0.029 A 
ATOM     28  C   UNL     1      25.825   6.788  49.761  1.00  0.00     0.165 A 
ATOM     29  C   UNL     1      27.213   4.589  48.788  1.00  0.00     0.004 A 
ATOM     30  C   UNL     1      26.843   6.969  48.824  1.00  0.00     0.078 A 
ATOM     31  C   UNL     1      27.544   5.867  48.339  1.00  0.00     0.024 A 
ATOM     32  F   UNL     1      25.138   7.848  50.225  1.00  0.00    -0.203 F 
ATOM     33  Cl  UNL     1      27.241   8.544  48.253  1.00  0.00    -0.081 Cl
ENDBRANCH  24  26
ENDBRANCH   7  24
TORSDOF 6
ENDMDL
MODEL 14
REMARK minimizedAffinity -8.21302223
REMARK minimizedRMSD -1
REMARK SMILES COc1cc2ncnc(Nc3cccc(Cl)c3F)c2cc1OC(=O)N1CCN(C)C[C@H]1C
REMARK SMILES IDX 3 1 4 2 5 3 6 4 7 5 8 6 9 7 19 8 20 9 21 10 2 11 1 12 22 13
REMARK SMILES IDX 23 14 24 15 25 16 26 17 31 18 27 19 30 20 28 21 32 22 29 23
REMARK SMILES IDX 10 24 11 26 12 27 17 28 13 29 15 30 14 31 18 32 16 33
REMARK H PARENT 10 25
ROOT
ATOM      1  C   UNL     1      21.395   3.875  51.921  1.00  0.00     0.163 A 
ATOM      2  C   UNL     1      20.783   4.888  51.179  1.00  0.00     0.079 A 
ATOM      3  C   UNL     1      21.479   6.022  50.764  1.00  0.00     0.080 A 
ATOM      4  N   UNL     1      20.816   6.945  50.064  1.00  0.00    -0.236 NA
ATOM      5  C   UNL     1      21.506   8.027  49.687  1.00  0.00     0.224 A 
ATOM      6  N   UNL     1      22.796   8.268  49.937  1.00  0.00    -0.219 NA
ATOM      7  C   UNL     1      23.466   7.328  50.628  1.00  0.00     0.141 A 
ATOM      8  C   UNL     1      22.836   6.157  51.095  1.00  0.00     0.047 A 
ATOM      9  C   UNL     1      23.464   5.149  51.862  1.00  0.00     0.065 A 
ATOM     10  C   UNL     1      22.743   4.022  52.246  1.00  0.00     0.175 A 
ENDROOT
BRANCH   1  11
ATOM     11  O   UNL     1      20.780   2.743  52.381  1.00  0.00    -0.493 OA
ATOM     12  C   UNL     1      20.458   1.745  51.421  1.00  0.00     0.278 C 
ENDBRANCH   1  11
BRANCH  10  13
ATOM     13  O   UNL     1      23.384   3.051  53.019  1.00  0.00    -0.406 OA
BRANCH  13  14
ATOM     14  C   UNL     1      24.177   2.193  52.263  1.00  0.00     0.415 C 
ATOM     15  O   UNL     1      24.175   2.150  51.036  1.00  0.00    -0.224 OA
BRANCH  14  16
ATOM     16  N   UNL     1      25.000   1.405  53.053  1.00  0.00    -0.303 N 
ATOM     17  C   UNL     1      26.140   2.007  53.731  1.00  0.00     0.139 C 
ATOM     18  C   UNL     1      24.950  -0.067  53.056  1.00  0.00     0.099 C 
ATOM     19  C   UNL     1      27.475   1.409  53.239  1.00  0.00     0.106 C 
ATOM     20  C   UNL     1      26.278  -0.695  53.571  1.00  0.00     0.109 C 
ATOM     21  N   UNL     1      27.448  -0.045  52.963  1.00  0.00    -0.303 NA
ATOM     22  C   UNL     1      23.780  -0.578  53.901  1.00  0.00     0.032 C 
ATOM     23  C   UNL     1      28.696  -0.690  53.349  1.00  0.00     0.105 C 
ENDBRANCH  14  16
ENDBRANCH  13  14
ENDBRANCH  10  13
BRANCH   7  24
ATOM     24  N   UNL     1      24.848   7.516  50.893  1.00  0.00    -0.337 N 
ATOM     25  H   UNL     1      25.057   7.200  51.840  1.00  0.00     0.168 HD
BRANCH  24  26
ATOM     26  C   UNL     1      25.948   7.262  50.039  1.00  0.00     0.077 A 
ATOM     27  C   UNL     1      26.145   6.032  49.398  1.00  0.00     0.029 A 
ATOM     28  C   UNL     1      26.823   8.313  49.722  1.00  0.00     0.165 A 
ATOM     29  C   UNL     1      27.212   5.844  48.512  1.00  0.00     0.004 A 
ATOM     30  C   UNL     1      27.888   8.133  48.839  1.00  0.00     0.078 A 
ATOM     31  C   UNL     1      28.088   6.894  48.235  1.00  0.00     0.024 A 
ATOM     32  F   UNL     1      26.620   9.511  50.300  1.00  0.00    -0.203 F 
ATOM     33  Cl  UNL     1      28.960   9.432  48.480  1.00  0.00    -0.081 Cl
ENDBRANCH  24  26
ENDBRANCH   7  24
TORSDOF 6
ENDMDL
MODEL 15
REMARK minimizedAffinity -8.18734455
REMARK minimizedRMSD -1
REMARK SMILES COc1cc2ncnc(Nc3cccc(Cl)c3F)c2cc1OC(=O)N1CCN(C)C[C@H]1C
REMARK SMILES IDX 3 1 4 2 5 3 6 4 7 5 8 6 9 7 19 8 20 9 21 10 2 11 1 12 22 13
REMARK SMILES IDX 23 14 24 15 25 16 26 17 31 18 27 19 30 20 28 21 32 22 29 23
REMARK SMILES IDX 10 24 11 26 12 27 17 28 13 29 15 30 14 31 18 32 16 33
REMARK H PARENT 10 25
ROOT
ATOM      1  C   UNL     1      22.187   4.942  50.818  1.00  0.00     0.163 A 
ATOM      2  C   UNL     1      23.304   5.252  50.039  1.00  0.00     0.079 A 
ATOM      3  C   UNL     1      24.488   4.520  50.120  1.00  0.00     0.080 A 
ATOM      4  N   UNL     1      25.510   4.889  49.345  1.00  0.00    -0.236 NA
ATOM      5  C   UNL     1      26.635   4.175  49.451  1.00  0.00     0.224 A 
ATOM      6  N   UNL     1      26.832   3.124  50.253  1.00  0.00    -0.219 NA
ATOM      7  C   UNL     1      25.795   2.745  51.021  1.00  0.00     0.141 A 
ATOM      8  C   UNL     1      24.567   3.436  51.009  1.00  0.00     0.047 A 
ATOM      9  C   UNL     1      23.451   3.122  51.817  1.00  0.00     0.065 A 
ATOM     10  C   UNL     1      22.279   3.864  51.698  1.00  0.00     0.175 A 
ENDROOT
BRANCH   1  11
ATOM     11  O   UNL     1      20.998   5.618  50.810  1.00  0.00    -0.493 OA
ATOM     12  C   UNL     1      20.673   6.345  49.633  1.00  0.00     0.278 C 
ENDBRANCH   1  11
BRANCH  10  13
ATOM     13  O   UNL     1      21.199   3.542  52.523  1.00  0.00    -0.406 OA
BRANCH  13  14
ATOM     14  C   UNL     1      20.752   2.236  52.347  1.00  0.00     0.415 C 
ATOM     15  O   UNL     1      20.945   1.325  53.147  1.00  0.00    -0.224 OA
BRANCH  14  16
ATOM     16  N   UNL     1      20.033   2.080  51.172  1.00  0.00    -0.303 N 
ATOM     17  C   UNL     1      20.543   1.202  50.127  1.00  0.00     0.139 C 
ATOM     18  C   UNL     1      18.900   2.943  50.796  1.00  0.00     0.099 C 
ATOM     19  C   UNL     1      20.849   1.981  48.830  1.00  0.00     0.106 C 
ATOM     20  C   UNL     1      18.637   2.925  49.261  1.00  0.00     0.109 C 
ATOM     21  N   UNL     1      19.890   3.059  48.503  1.00  0.00    -0.303 NA
ATOM     22  C   UNL     1      17.625   2.535  51.539  1.00  0.00     0.032 C 
ATOM     23  C   UNL     1      19.654   3.154  47.068  1.00  0.00     0.105 C 
ENDBRANCH  14  16
ENDBRANCH  13  14
ENDBRANCH  10  13
BRANCH   7  24
ATOM     24  N   UNL     1      25.937   1.614  51.867  1.00  0.00    -0.337 N 
ATOM     25  H   UNL     1      25.459   0.817  51.449  1.00  0.00     0.168 HD
BRANCH  24  26
ATOM     26  C   UNL     1      27.089   1.181  52.568  1.00  0.00     0.077 A 
ATOM     27  C   UNL     1      27.845   2.030  53.386  1.00  0.00     0.029 A 
ATOM     28  C   UNL     1      27.432  -0.181  52.542  1.00  0.00     0.165 A 
ATOM     29  C   UNL     1      28.940   1.544  54.110  1.00  0.00     0.004 A 
ATOM     30  C   UNL     1      28.520  -0.671  53.263  1.00  0.00     0.078 A 
ATOM     31  C   UNL     1      29.282   0.193  54.046  1.00  0.00     0.024 A 
ATOM     32  F   UNL     1      26.687  -1.014  51.792  1.00  0.00    -0.203 F 
ATOM     33  Cl  UNL     1      28.934  -2.342  53.200  1.00  0.00    -0.081 Cl
ENDBRANCH  24  26
ENDBRANCH   7  24
TORSDOF 6
ENDMDL
MODEL 16
REMARK minimizedAffinity -8.15102196
REMARK minimizedRMSD -1
REMARK SMILES COc1cc2ncnc(Nc3cccc(Cl)c3F)c2cc1OC(=O)N1CCN(C)C[C@H]1C
REMARK SMILES IDX 3 1 4 2 5 3 6 4 7 5 8 6 9 7 19 8 20 9 21 10 2 11 1 12 22 13
REMARK SMILES IDX 23 14 24 15 25 16 26 17 31 18 27 19 30 20 28 21 32 22 29 23
REMARK SMILES IDX 10 24 11 26 12 27 17 28 13 29 15 30 14 31 18 32 16 33
REMARK H PARENT 10 25
ROOT
ATOM      1  C   UNL     1      23.103   3.160  49.283  1.00  0.00     0.163 A 
ATOM      2  C   UNL     1      22.730   4.227  48.463  1.00  0.00     0.079 A 
ATOM      3  C   UNL     1      23.551   5.340  48.281  1.00  0.00     0.080 A 
ATOM      4  N   UNL     1      23.115   6.319  47.485  1.00  0.00    -0.236 NA
ATOM      5  C   UNL     1      23.919   7.377  47.336  1.00  0.00     0.224 A 
ATOM      6  N   UNL     1      25.118   7.546  47.902  1.00  0.00    -0.219 NA
ATOM      7  C   UNL     1      25.561   6.550  48.691  1.00  0.00     0.141 A 
ATOM      8  C   UNL     1      24.790   5.396  48.937  1.00  0.00     0.047 A 
ATOM      9  C   UNL     1      25.172   4.332  49.785  1.00  0.00     0.065 A 
ATOM     10  C   UNL     1      24.335   3.228  49.931  1.00  0.00     0.175 A 
ENDROOT
BRANCH   1  11
ATOM     11  O   UNL     1      22.350   2.044  49.528  1.00  0.00    -0.493 OA
ATOM     12  C   UNL     1      21.762   1.400  48.406  1.00  0.00     0.278 C 
ENDBRANCH   1  11
BRANCH  10  13
ATOM     13  O   UNL     1      24.730   2.201  50.791  1.00  0.00    -0.406 OA
BRANCH  13  14
ATOM     14  C   UNL     1      24.547   2.518  52.134  1.00  0.00     0.415 C 
ATOM     15  O   UNL     1      23.847   3.443  52.537  1.00  0.00    -0.224 OA
BRANCH  14  16
ATOM     16  N   UNL     1      25.223   1.649  52.976  1.00  0.00    -0.303 N 
ATOM     17  C   UNL     1      26.325   2.146  53.788  1.00  0.00     0.139 C 
ATOM     18  C   UNL     1      25.066   0.185  52.924  1.00  0.00     0.099 C 
ATOM     19  C   UNL     1      27.658   1.463  53.416  1.00  0.00     0.106 C 
ATOM     20  C   UNL     1      26.285  -0.554  53.551  1.00  0.00     0.109 C 
ATOM     21  N   UNL     1      27.556   0.023  53.090  1.00  0.00    -0.303 NA
ATOM     22  C   UNL     1      23.781  -0.258  53.627  1.00  0.00     0.032 C 
ATOM     23  C   UNL     1      28.707  -0.725  53.581  1.00  0.00     0.105 C 
ENDBRANCH  14  16
ENDBRANCH  13  14
ENDBRANCH  10  13
BRANCH   7  24
ATOM     24  N   UNL     1      26.843   6.660  49.290  1.00  0.00    -0.337 N 
ATOM     25  H   UNL     1      26.927   5.971  50.038  1.00  0.00     0.168 HD
BRANCH  24  26
ATOM     26  C   UNL     1      28.095   6.850  48.658  1.00  0.00     0.077 A 
ATOM     27  C   UNL     1      28.670   8.114  48.473  1.00  0.00     0.029 A 
ATOM     28  C   UNL     1      28.855   5.725  48.297  1.00  0.00     0.165 A 
ATOM     29  C   UNL     1      29.938   8.251  47.900  1.00  0.00     0.004 A 
ATOM     30  C   UNL     1      30.121   5.855  47.726  1.00  0.00     0.078 A 
ATOM     31  C   UNL     1      30.664   7.121  47.521  1.00  0.00     0.024 A 
ATOM     32  F   UNL     1      28.331   4.504  48.507  1.00  0.00    -0.203 F 
ATOM     33  Cl  UNL     1      31.028   4.462  47.274  1.00  0.00    -0.081 Cl
ENDBRANCH  24  26
ENDBRANCH   7  24
TORSDOF 6
ENDMDL
MODEL 17
REMARK minimizedAffinity -8.14151573
REMARK minimizedRMSD -1
REMARK SMILES COc1cc2ncnc(Nc3cccc(Cl)c3F)c2cc1OC(=O)N1CCN(C)C[C@H]1C
REMARK SMILES IDX 3 1 4 2 5 3 6 4 7 5 8 6 9 7 19 8 20 9 21 10 2 11 1 12 22 13
REMARK SMILES IDX 23 14 24 15 25 16 26 17 31 18 27 19 30 20 28 21 32 22 29 23
REMARK SMILES IDX 10 24 11 26 12 27 17 28 13 29 15 30 14 31 18 32 16 33
REMARK H PARENT 10 25
ROOT
ATOM      1  C   UNL     1      24.616   4.488  49.439  1.00  0.00     0.163 A 
ATOM      2  C   UNL     1      23.707   5.033  48.531  1.00  0.00     0.079 A 
ATOM      3  C   UNL     1      22.542   4.363  48.160  1.00  0.00     0.080 A 
ATOM      4  N   UNL     1      21.729   4.953  47.280  1.00  0.00    -0.236 NA
ATOM      5  C   UNL     1      20.625   4.283  46.936  1.00  0.00     0.224 A 
ATOM      6  N   UNL     1      20.252   3.084  47.393  1.00  0.00    -0.219 NA
ATOM      7  C   UNL     1      21.065   2.499  48.292  1.00  0.00     0.141 A 
ATOM      8  C   UNL     1      22.267   3.102  48.712  1.00  0.00     0.047 A 
ATOM      9  C   UNL     1      23.188   2.529  49.618  1.00  0.00     0.065 A 
ATOM     10  C   UNL     1      24.333   3.234  49.980  1.00  0.00     0.175 A 
ENDROOT
BRANCH   1  11
ATOM     11  O   UNL     1      25.787   5.070  49.841  1.00  0.00    -0.493 OA
ATOM     12  C   UNL     1      26.853   5.099  48.901  1.00  0.00     0.278 C 
ENDBRANCH   1  11
BRANCH  10  13
ATOM     13  O   UNL     1      25.235   2.634  50.862  1.00  0.00    -0.406 OA
BRANCH  13  14
ATOM     14  C   UNL     1      24.791   2.647  52.181  1.00  0.00     0.415 C 
ATOM     15  O   UNL     1      23.932   3.409  52.615  1.00  0.00    -0.224 OA
BRANCH  14  16
ATOM     16  N   UNL     1      25.410   1.677  52.954  1.00  0.00    -0.303 N 
ATOM     17  C   UNL     1      26.574   2.029  53.755  1.00  0.00     0.139 C 
ATOM     18  C   UNL     1      25.123   0.237  52.828  1.00  0.00     0.099 C 
ATOM     19  C   UNL     1      27.830   1.253  53.304  1.00  0.00     0.106 C 
ATOM     20  C   UNL     1      26.287  -0.640  53.375  1.00  0.00     0.109 C 
ATOM     21  N   UNL     1      27.592  -0.151  52.905  1.00  0.00    -0.303 NA
ATOM     22  C   UNL     1      23.822  -0.130  53.547  1.00  0.00     0.032 C 
ATOM     23  C   UNL     1      28.684  -1.023  53.317  1.00  0.00     0.105 C 
ENDBRANCH  14  16
ENDBRANCH  13  14
ENDBRANCH  10  13
BRANCH   7  24
ATOM     24  N   UNL     1      20.701   1.240  48.837  1.00  0.00    -0.337 N 
ATOM     25  H   UNL     1      21.530   0.648  48.903  1.00  0.00     0.168 HD
BRANCH  24  26
ATOM     26  C   UNL     1      19.820   0.969  49.911  1.00  0.00     0.077 A 
ATOM     27  C   UNL     1      18.437   1.173  49.830  1.00  0.00     0.029 A 
ATOM     28  C   UNL     1      20.326   0.364  51.073  1.00  0.00     0.165 A 
ATOM     29  C   UNL     1      17.595   0.832  50.894  1.00  0.00     0.004 A 
ATOM     30  C   UNL     1      19.493   0.022  52.138  1.00  0.00     0.078 A 
ATOM     31  C   UNL     1      18.123   0.260  52.053  1.00  0.00     0.024 A 
ATOM     32  F   UNL     1      21.649   0.127  51.147  1.00  0.00    -0.203 F 
ATOM     33  Cl  UNL     1      20.138  -0.702  53.561  1.00  0.00    -0.081 Cl
ENDBRANCH  24  26
ENDBRANCH   7  24
TORSDOF 6
ENDMDL
MODEL 18
REMARK minimizedAffinity -8.13299084
REMARK minimizedRMSD -1
REMARK SMILES COc1cc2ncnc(Nc3cccc(Cl)c3F)c2cc1OC(=O)N1CCN(C)C[C@H]1C
REMARK SMILES IDX 3 1 4 2 5 3 6 4 7 5 8 6 9 7 19 8 20 9 21 10 2 11 1 12 22 13
REMARK SMILES IDX 23 14 24 15 25 16 26 17 31 18 27 19 30 20 28 21 32 22 29 23
REMARK SMILES IDX 10 24 11 26 12 27 17 28 13 29 15 30 14 31 18 32 16 33
REMARK H PARENT 10 25
ROOT
ATOM      1  C   UNL     1      25.618   0.788  52.452  1.00  0.00     0.163 A 
ATOM      2  C   UNL     1      25.205  -0.142  53.407  1.00  0.00     0.079 A 
ATOM      3  C   UNL     1      23.877  -0.236  53.820  1.00  0.00     0.080 A 
ATOM      4  N   UNL     1      23.568  -1.150  54.744  1.00  0.00    -0.236 NA
ATOM      5  C   UNL     1      22.288  -1.210  55.127  1.00  0.00     0.224 A 
ATOM      6  N   UNL     1      21.289  -0.451  54.670  1.00  0.00    -0.219 NA
ATOM      7  C   UNL     1      21.600   0.458  53.727  1.00  0.00     0.141 A 
ATOM      8  C   UNL     1      22.920   0.626  53.262  1.00  0.00     0.047 A 
ATOM      9  C   UNL     1      23.327   1.585  52.308  1.00  0.00     0.065 A 
ATOM     10  C   UNL     1      24.659   1.640  51.906  1.00  0.00     0.175 A 
ENDROOT
BRANCH   1  11
ATOM     11  O   UNL     1      26.901   0.955  52.007  1.00  0.00    -0.493 OA
ATOM     12  C   UNL     1      27.903   1.190  52.988  1.00  0.00     0.278 C 
ENDBRANCH   1  11
BRANCH  10  13
ATOM     13  O   UNL     1      25.036   2.611  50.976  1.00  0.00    -0.406 OA
BRANCH  13  14
ATOM     14  C   UNL     1      23.975   3.049  50.189  1.00  0.00     0.415 C 
ATOM     15  O   UNL     1      23.190   2.304  49.609  1.00  0.00    -0.224 OA
BRANCH  14  16
ATOM     16  N   UNL     1      23.881   4.432  50.155  1.00  0.00    -0.303 N 
ATOM     17  C   UNL     1      24.100   5.137  48.900  1.00  0.00     0.139 C 
ATOM     18  C   UNL     1      23.820   5.269  51.366  1.00  0.00     0.099 C 
ATOM     19  C   UNL     1      25.322   6.077  48.982  1.00  0.00     0.106 C 
ATOM     20  C   UNL     1      24.263   6.734  51.084  1.00  0.00     0.109 C 
ATOM     21  N   UNL     1      25.490   6.776  50.276  1.00  0.00    -0.303 NA
ATOM     22  C   UNL     1      22.413   5.265  51.968  1.00  0.00     0.032 C 
ATOM     23  C   UNL     1      25.981   8.137  50.094  1.00  0.00     0.105 C 
ENDBRANCH  14  16
ENDBRANCH  13  14
ENDBRANCH  10  13
BRANCH   7  24
ATOM     24  N   UNL     1      20.571   1.269  53.181  1.00  0.00    -0.337 N 
ATOM     25  H   UNL     1      20.914   2.224  53.076  1.00  0.00     0.168 HD
BRANCH  24  26
ATOM     26  C   UNL     1      19.667   0.956  52.137  1.00  0.00     0.077 A 
ATOM     27  C   UNL     1      18.747  -0.097  52.218  1.00  0.00     0.029 A 
ATOM     28  C   UNL     1      19.601   1.798  51.015  1.00  0.00     0.165 A 
ATOM     29  C   UNL     1      17.829  -0.332  51.189  1.00  0.00     0.004 A 
ATOM     30  C   UNL     1      18.688   1.571  49.986  1.00  0.00     0.078 A 
ATOM     31  C   UNL     1      17.801   0.499  50.069  1.00  0.00     0.024 A 
ATOM     32  F   UNL     1      20.453   2.838  50.945  1.00  0.00    -0.203 F 
ATOM     33  Cl  UNL     1      18.638   2.606  48.611  1.00  0.00    -0.081 Cl
ENDBRANCH  24  26
ENDBRANCH   7  24
TORSDOF 6
ENDMDL
MODEL 19
REMARK minimizedAffinity -8.08103752
REMARK minimizedRMSD -1
REMARK SMILES COc1cc2ncnc(Nc3cccc(Cl)c3F)c2cc1OC(=O)N1CCN(C)C[C@H]1C
REMARK SMILES IDX 3 1 4 2 5 3 6 4 7 5 8 6 9 7 19 8 20 9 21 10 2 11 1 12 22 13
REMARK SMILES IDX 23 14 24 15 25 16 26 17 31 18 27 19 30 20 28 21 32 22 29 23
REMARK SMILES IDX 10 24 11 26 12 27 17 28 13 29 15 30 14 31 18 32 16 33
REMARK H PARENT 10 25
ROOT
ATOM      1  C   UNL     1      26.228  -0.210  53.527  1.00  0.00     0.163 A 
ATOM      2  C   UNL     1      25.355  -0.752  54.473  1.00  0.00     0.079 A 
ATOM      3  C   UNL     1      23.975  -0.778  54.275  1.00  0.00     0.080 A 
ATOM      4  N   UNL     1      23.212  -1.308  55.233  1.00  0.00    -0.236 NA
ATOM      5  C   UNL     1      21.892  -1.311  55.019  1.00  0.00     0.224 A 
ATOM      6  N   UNL     1      21.265  -0.841  53.937  1.00  0.00    -0.219 NA
ATOM      7  C   UNL     1      22.039  -0.322  52.966  1.00  0.00     0.141 A 
ATOM      8  C   UNL     1      23.440  -0.247  53.091  1.00  0.00     0.047 A 
ATOM      9  C   UNL     1      24.310   0.322  52.133  1.00  0.00     0.065 A 
ATOM     10  C   UNL     1      25.684   0.316  52.356  1.00  0.00     0.175 A 
ENDROOT
BRANCH   1  11
ATOM     11  O   UNL     1      27.588  -0.130  53.653  1.00  0.00    -0.493 OA
ATOM     12  C   UNL     1      28.101   0.249  54.923  1.00  0.00     0.278 C 
ENDBRANCH   1  11
BRANCH  10  13
ATOM     13  O   UNL     1      26.518   0.902  51.401  1.00  0.00    -0.406 OA
BRANCH  13  14
ATOM     14  C   UNL     1      26.755   2.252  51.644  1.00  0.00     0.415 C 
ATOM     15  O   UNL     1      27.738   2.685  52.241  1.00  0.00    -0.224 OA
BRANCH  14  16
ATOM     16  N   UNL     1      25.768   3.064  51.110  1.00  0.00    -0.303 N 
ATOM     17  C   UNL     1      25.589   3.124  49.665  1.00  0.00     0.139 C 
ATOM     18  C   UNL     1      25.040   4.076  51.895  1.00  0.00     0.099 C 
ATOM     19  C   UNL     1      25.856   4.543  49.119  1.00  0.00     0.106 C 
ATOM     20  C   UNL     1      24.419   5.181  50.990  1.00  0.00     0.109 C 
ATOM     21  N   UNL     1      25.381   5.648  49.980  1.00  0.00    -0.303 NA
ATOM     22  C   UNL     1      23.941   3.431  52.743  1.00  0.00     0.032 C 
ATOM     23  C   UNL     1      24.855   6.758  49.195  1.00  0.00     0.105 C 
ENDBRANCH  14  16
ENDBRANCH  13  14
ENDBRANCH  10  13
BRANCH   7  24
ATOM     24  N   UNL     1      21.428   0.161  51.779  1.00  0.00    -0.337 N 
ATOM     25  H   UNL     1      20.666  -0.463  51.512  1.00  0.00     0.168 HD
BRANCH  24  26
ATOM     26  C   UNL     1      21.108   1.497  51.437  1.00  0.00     0.077 A 
ATOM     27  C   UNL     1      20.363   2.338  52.273  1.00  0.00     0.029 A 
ATOM     28  C   UNL     1      21.651   2.051  50.266  1.00  0.00     0.165 A 
ATOM     29  C   UNL     1      20.124   3.672  51.924  1.00  0.00     0.004 A 
ATOM     30  C   UNL     1      21.417   3.380  49.912  1.00  0.00     0.078 A 
ATOM     31  C   UNL     1      20.647   4.193  50.740  1.00  0.00     0.024 A 
ATOM     32  F   UNL     1      22.403   1.264  49.474  1.00  0.00    -0.203 F 
ATOM     33  Cl  UNL     1      22.077   4.032  48.461  1.00  0.00    -0.081 Cl
ENDBRANCH  24  26
ENDBRANCH   7  24
TORSDOF 6
ENDMDL
MODEL 20
REMARK minimizedAffinity -8.06326199
REMARK minimizedRMSD -1
REMARK SMILES COc1cc2ncnc(Nc3cccc(Cl)c3F)c2cc1OC(=O)N1CCN(C)C[C@H]1C
REMARK SMILES IDX 3 1 4 2 5 3 6 4 7 5 8 6 9 7 19 8 20 9 21 10 2 11 1 12 22 13
REMARK SMILES IDX 23 14 24 15 25 16 26 17 31 18 27 19 30 20 28 21 32 22 29 23
REMARK SMILES IDX 10 24 11 26 12 27 17 28 13 29 15 30 14 31 18 32 16 33
REMARK H PARENT 10 25
ROOT
ATOM      1  C   UNL     1      21.935   5.853  51.160  1.00  0.00     0.163 A 
ATOM      2  C   UNL     1      21.015   4.820  51.348  1.00  0.00     0.079 A 
ATOM      3  C   UNL     1      21.410   3.487  51.444  1.00  0.00     0.080 A 
ATOM      4  N   UNL     1      20.465   2.561  51.617  1.00  0.00    -0.236 NA
ATOM      5  C   UNL     1      20.873   1.290  51.696  1.00  0.00     0.224 A 
ATOM      6  N   UNL     1      22.136   0.859  51.626  1.00  0.00    -0.219 NA
ATOM      7  C   UNL     1      23.088   1.797  51.468  1.00  0.00     0.141 A 
ATOM      8  C   UNL     1      22.774   3.165  51.351  1.00  0.00     0.047 A 
ATOM      9  C   UNL     1      23.715   4.198  51.142  1.00  0.00     0.065 A 
ATOM     10  C   UNL     1      23.286   5.521  51.067  1.00  0.00     0.175 A 
ENDROOT
BRANCH   1  11
ATOM     11  O   UNL     1      21.628   7.181  51.039  1.00  0.00    -0.493 OA
ATOM     12  C   UNL     1      20.762   7.552  49.974  1.00  0.00     0.278 C 
ENDBRANCH   1  11
BRANCH  10  13
ATOM     13  O   UNL     1      24.237   6.519  50.841  1.00  0.00    -0.406 OA
BRANCH  13  14
ATOM     14  C   UNL     1      24.649   6.582  49.513  1.00  0.00     0.415 C 
ATOM     15  O   UNL     1      23.899   6.460  48.548  1.00  0.00    -0.224 OA
BRANCH  14  16
ATOM     16  N   UNL     1      26.008   6.830  49.396  1.00  0.00    -0.303 N 
ATOM     17  C   UNL     1      26.587   7.996  50.049  1.00  0.00     0.139 C 
ATOM     18  C   UNL     1      26.879   6.126  48.439  1.00  0.00     0.099 C 
ATOM     19  C   UNL     1      27.188   8.981  49.023  1.00  0.00     0.106 C 
ATOM     20  C   UNL     1      28.173   6.933  48.124  1.00  0.00     0.109 C 
ATOM     21  N   UNL     1      27.871   8.350  47.872  1.00  0.00    -0.303 NA
ATOM     22  C   UNL     1      27.256   4.735  48.956  1.00  0.00     0.032 C 
ATOM     23  C   UNL     1      29.054   9.099  47.469  1.00  0.00     0.105 C 
ENDBRANCH  14  16
ENDBRANCH  13  14
ENDBRANCH  10  13
BRANCH   7  24
ATOM     24  N   UNL     1      24.450   1.399  51.421  1.00  0.00    -0.337 N 
ATOM     25  H   UNL     1      24.933   1.931  50.697  1.00  0.00     0.168 HD
BRANCH  24  26
ATOM     26  C   UNL     1      25.326   1.137  52.502  1.00  0.00     0.077 A 
ATOM     27  C   UNL     1      25.114   0.100  53.419  1.00  0.00     0.029 A 
ATOM     28  C   UNL     1      26.521   1.868  52.605  1.00  0.00     0.165 A 
ATOM     29  C   UNL     1      26.039  -0.163  54.436  1.00  0.00     0.004 A 
ATOM     30  C   UNL     1      27.448   1.611  53.615  1.00  0.00     0.078 A 
ATOM     31  C   UNL     1      27.205   0.596  54.538  1.00  0.00     0.024 A 
ATOM     32  F   UNL     1      26.755   2.841  51.705  1.00  0.00    -0.203 F 
ATOM     33  Cl  UNL     1      28.897   2.533  53.733  1.00  0.00    -0.081 Cl
ENDBRANCH  24  26
ENDBRANCH   7  24
TORSDOF 6
ENDMDL
