MODEL 1
REMARK minimizedAffinity -8.19753265
REMARK minimizedRMSD -1
REMARK SMILES COc1cc2c(Oc3ccc4[nH]c(C)cc4c3F)ncnc2cc1OCCCN1CCCC1
REMARK SMILES IDX 25 1 24 2 3 3 4 4 5 5 23 6 6 7 22 8 19 9 21 10 20 11 2 12
REMARK SMILES IDX 1 13 7 14 8 15 9 16 17 17 10 18 16 19 11 20 15 21 12 22
REMARK SMILES IDX 13 23 18 24 14 26 26 27 27 28 28 29 29 30 30 31 33 32 31 33
REMARK SMILES IDX 32 34
REMARK H PARENT 12 25
ROOT
ATOM      1  O   UNL     1      29.233   8.911  48.378  1.00  0.00    -0.490 OA
ENDROOT
BRANCH   1   2
ATOM      2  C   UNL     1      28.173   8.108  48.716  1.00  0.00     0.163 A 
ATOM      3  C   UNL     1      28.224   6.787  48.242  1.00  0.00     0.161 A 
ATOM      4  C   UNL     1      27.182   5.915  48.557  1.00  0.00     0.066 A 
ATOM      5  C   UNL     1      26.093   6.353  49.350  1.00  0.00     0.067 A 
ATOM      6  C   UNL     1      27.098   8.518  49.512  1.00  0.00     0.079 A 
ATOM      7  C   UNL     1      25.001   5.565  49.721  1.00  0.00     0.230 A 
ATOM      8  C   UNL     1      26.053   7.663  49.834  1.00  0.00     0.081 A 
ATOM      9  N   UNL     1      23.961   6.002  50.460  1.00  0.00    -0.201 NA
ATOM     10  N   UNL     1      25.047   8.121  50.589  1.00  0.00    -0.236 NA
ATOM     11  C   UNL     1      24.051   7.268  50.869  1.00  0.00     0.226 A 
BRANCH   3  12
ATOM     12  O   UNL     1      29.311   6.459  47.473  1.00  0.00    -0.493 OA
ATOM     13  C   UNL     1      30.043   5.294  47.827  1.00  0.00     0.278 C 
ENDBRANCH   3  12
BRANCH   7  14
ATOM     14  O   UNL     1      24.956   4.263  49.226  1.00  0.00    -0.435 OA
BRANCH  14  15
ATOM     15  C   UNL     1      25.002   3.262  50.168  1.00  0.00     0.165 A 
ATOM     16  C   UNL     1      26.251   2.886  50.659  1.00  0.00     0.052 A 
ATOM     17  C   UNL     1      23.829   2.692  50.679  1.00  0.00     0.175 A 
ATOM     18  C   UNL     1      26.364   1.902  51.649  1.00  0.00     0.031 A 
ATOM     19  C   UNL     1      23.916   1.702  51.674  1.00  0.00     0.039 A 
ATOM     20  C   UNL     1      25.180   1.328  52.135  1.00  0.00     0.049 A 
ATOM     21  C   UNL     1      22.964   0.927  52.392  1.00  0.00     0.034 A 
ATOM     22  N   UNL     1      24.990   0.356  53.091  1.00  0.00    -0.359 N 
ATOM     23  C   UNL     1      23.650   0.103  53.260  1.00  0.00     0.013 A 
ATOM     24  F   UNL     1      22.631   3.103  50.238  1.00  0.00    -0.202 F 
ATOM     25  H   UNL     1      25.735  -0.105  53.594  1.00  0.00     0.166 HD
ATOM     26  C   UNL     1      23.161  -0.901  54.236  1.00  0.00     0.064 C 
ENDBRANCH  14  15
ENDBRANCH   7  14
ENDBRANCH   1   2
BRANCH   1  27
ATOM     27  C   UNL     1      30.169   9.285  49.387  1.00  0.00     0.231 C 
BRANCH  27  28
ATOM     28  C   UNL     1      31.456   8.466  49.346  1.00  0.00     0.057 C 
BRANCH  28  29
ATOM     29  C   UNL     1      32.344   8.652  48.108  1.00  0.00     0.088 C 
BRANCH  29  30
ATOM     30  N   UNL     1      33.394   7.636  47.960  1.00  0.00    -0.303 NA
ATOM     31  C   UNL     1      34.732   8.132  48.315  1.00  0.00     0.084 C 
ATOM     32  C   UNL     1      33.179   6.516  48.885  1.00  0.00     0.084 C 
ATOM     33  C   UNL     1      35.538   6.863  48.569  1.00  0.00     0.017 C 
ATOM     34  C   UNL     1      34.506   5.780  48.846  1.00  0.00     0.017 C 
ENDBRANCH  29  30
ENDBRANCH  28  29
ENDBRANCH  27  28
ENDBRANCH   1  27
TORSDOF 8
ENDMDL
MODEL 2
REMARK minimizedAffinity -8.16951275
REMARK minimizedRMSD -1
REMARK SMILES COc1cc2c(Oc3ccc4[nH]c(C)cc4c3F)ncnc2cc1OCCCN1CCCC1
REMARK SMILES IDX 25 1 24 2 3 3 4 4 5 5 23 6 6 7 22 8 19 9 21 10 20 11 2 12
REMARK SMILES IDX 1 13 7 14 8 15 9 16 17 17 10 18 16 19 11 20 15 21 12 22
REMARK SMILES IDX 13 23 18 24 14 26 26 27 27 28 28 29 29 30 30 31 33 32 31 33
REMARK SMILES IDX 32 34
REMARK H PARENT 12 25
ROOT
ATOM      1  O   UNL     1      22.662   7.124  47.791  1.00  0.00    -0.490 OA
ENDROOT
BRANCH   1   2
ATOM      2  C   UNL     1      22.500   5.941  48.467  1.00  0.00     0.163 A 
ATOM      3  C   UNL     1      22.461   6.032  49.868  1.00  0.00     0.161 A 
ATOM      4  C   UNL     1      22.290   4.868  50.616  1.00  0.00     0.066 A 
ATOM      5  C   UNL     1      22.149   3.614  49.973  1.00  0.00     0.067 A 
ATOM      6  C   UNL     1      22.342   4.697  47.848  1.00  0.00     0.079 A 
ATOM      7  C   UNL     1      21.976   2.391  50.625  1.00  0.00     0.230 A 
ATOM      8  C   UNL     1      22.172   3.529  48.579  1.00  0.00     0.081 A 
ATOM      9  N   UNL     1      21.864   1.202  49.999  1.00  0.00    -0.201 NA
ATOM     10  N   UNL     1      22.040   2.367  47.926  1.00  0.00    -0.236 NA
ATOM     11  C   UNL     1      21.888   1.260  48.667  1.00  0.00     0.226 A 
BRANCH   3  12
ATOM     12  O   UNL     1      22.617   7.286  50.400  1.00  0.00    -0.493 OA
ATOM     13  C   UNL     1      23.756   7.521  51.216  1.00  0.00     0.278 C 
ENDBRANCH   3  12
BRANCH   7  14
ATOM     14  O   UNL     1      21.997   2.401  52.018  1.00  0.00    -0.435 OA
BRANCH  14  15
ATOM     15  C   UNL     1      22.991   1.656  52.608  1.00  0.00     0.165 A 
ATOM     16  C   UNL     1      22.720   0.321  52.900  1.00  0.00     0.052 A 
ATOM     17  C   UNL     1      24.263   2.196  52.837  1.00  0.00     0.175 A 
ATOM     18  C   UNL     1      23.703  -0.502  53.464  1.00  0.00     0.031 A 
ATOM     19  C   UNL     1      25.268   1.390  53.402  1.00  0.00     0.039 A 
ATOM     20  C   UNL     1      24.965   0.061  53.704  1.00  0.00     0.049 A 
ATOM     21  C   UNL     1      26.626   1.602  53.766  1.00  0.00     0.034 A 
ATOM     22  N   UNL     1      26.102  -0.501  54.239  1.00  0.00    -0.359 N 
ATOM     23  C   UNL     1      27.120   0.422  54.281  1.00  0.00     0.013 A 
ATOM     24  F   UNL     1      24.528   3.468  52.499  1.00  0.00    -0.202 F 
ATOM     25  H   UNL     1      26.173  -1.457  54.556  1.00  0.00     0.166 HD
ATOM     26  C   UNL     1      28.463   0.080  54.810  1.00  0.00     0.064 C 
ENDBRANCH  14  15
ENDBRANCH   7  14
ENDBRANCH   1   2
BRANCH   1  27
ATOM     27  C   UNL     1      23.719   7.239  46.840  1.00  0.00     0.231 C 
BRANCH  27  28
ATOM     28  C   UNL     1      24.786   8.252  47.247  1.00  0.00     0.057 C 
BRANCH  28  29
ATOM     29  C   UNL     1      25.737   7.827  48.374  1.00  0.00     0.088 C 
BRANCH  29  30
ATOM     30  N   UNL     1      26.422   6.549  48.138  1.00  0.00    -0.303 NA
ATOM     31  C   UNL     1      27.887   6.662  48.185  1.00  0.00     0.084 C 
ATOM     32  C   UNL     1      26.110   5.581  49.197  1.00  0.00     0.084 C 
ATOM     33  C   UNL     1      28.357   5.230  48.415  1.00  0.00     0.017 C 
ATOM     34  C   UNL     1      27.153   4.498  48.989  1.00  0.00     0.017 C 
ENDBRANCH  29  30
ENDBRANCH  28  29
ENDBRANCH  27  28
ENDBRANCH   1  27
TORSDOF 8
ENDMDL
MODEL 3
REMARK minimizedAffinity -8.03519726
REMARK minimizedRMSD -1
REMARK SMILES COc1cc2c(Oc3ccc4[nH]c(C)cc4c3F)ncnc2cc1OCCCN1CCCC1
REMARK SMILES IDX 25 1 24 2 3 3 4 4 5 5 23 6 6 7 22 8 19 9 21 10 20 11 2 12
REMARK SMILES IDX 1 13 7 14 8 15 9 16 17 17 10 18 16 19 11 20 15 21 12 22
REMARK SMILES IDX 13 23 18 24 14 26 26 27 27 28 28 29 29 30 30 31 33 32 31 33
REMARK SMILES IDX 32 34
REMARK H PARENT 12 25
ROOT
ATOM      1  O   UNL     1      28.581   8.761  48.402  1.00  0.00    -0.490 OA
ENDROOT
BRANCH   1   2
ATOM      2  C   UNL     1      27.637   7.857  48.821  1.00  0.00     0.163 A 
ATOM      3  C   UNL     1      27.818   6.533  48.391  1.00  0.00     0.161 A 
ATOM      4  C   UNL     1      26.898   5.562  48.788  1.00  0.00     0.066 A 
ATOM      5  C   UNL     1      25.804   5.906  49.620  1.00  0.00     0.067 A 
ATOM      6  C   UNL     1      26.561   8.176  49.655  1.00  0.00     0.079 A 
ATOM      7  C   UNL     1      24.827   5.015  50.071  1.00  0.00     0.230 A 
ATOM      8  C   UNL     1      25.637   7.221  50.058  1.00  0.00     0.081 A 
ATOM      9  N   UNL     1      23.780   5.361  50.846  1.00  0.00    -0.201 NA
ATOM     10  N   UNL     1      24.620   7.593  50.847  1.00  0.00    -0.236 NA
ATOM     11  C   UNL     1      23.742   6.645  51.206  1.00  0.00     0.226 A 
BRANCH   3  12
ATOM     12  O   UNL     1      28.899   6.299  47.581  1.00  0.00    -0.493 OA
ATOM     13  C   UNL     1      29.869   5.362  48.027  1.00  0.00     0.278 C 
ENDBRANCH   3  12
BRANCH   7  14
ATOM     14  O   UNL     1      24.909   3.698  49.625  1.00  0.00    -0.435 OA
BRANCH  14  15
ATOM     15  C   UNL     1      24.764   2.728  50.589  1.00  0.00     0.165 A 
ATOM     16  C   UNL     1      25.872   2.419  51.376  1.00  0.00     0.052 A 
ATOM     17  C   UNL     1      23.522   2.126  50.831  1.00  0.00     0.175 A 
ATOM     18  C   UNL     1      25.778   1.470  52.402  1.00  0.00     0.031 A 
ATOM     19  C   UNL     1      23.403   1.170  51.856  1.00  0.00     0.039 A 
ATOM     20  C   UNL     1      24.532   0.863  52.616  1.00  0.00     0.049 A 
ATOM     21  C   UNL     1      22.333   0.379  52.358  1.00  0.00     0.034 A 
ATOM     22  N   UNL     1      24.153  -0.087  53.537  1.00  0.00    -0.359 N 
ATOM     23  C   UNL     1      22.820  -0.390  53.395  1.00  0.00     0.013 A 
ATOM     24  F   UNL     1      22.450   2.474  50.103  1.00  0.00    -0.202 F 
ATOM     25  H   UNL     1      24.772  -0.501  54.220  1.00  0.00     0.166 HD
ATOM     26  C   UNL     1      22.147  -1.384  54.266  1.00  0.00     0.064 C 
ENDBRANCH  14  15
ENDBRANCH   7  14
ENDBRANCH   1   2
BRANCH   1  27
ATOM     27  C   UNL     1      29.584   9.192  49.321  1.00  0.00     0.231 C 
BRANCH  27  28
ATOM     28  C   UNL     1      31.001   9.047  48.776  1.00  0.00     0.057 C 
BRANCH  28  29
ATOM     29  C   UNL     1      31.910   8.038  49.493  1.00  0.00     0.088 C 
BRANCH  29  30
ATOM     30  N   UNL     1      33.072   7.605  48.707  1.00  0.00    -0.303 NA
ATOM     31  C   UNL     1      33.389   6.179  48.882  1.00  0.00     0.084 C 
ATOM     32  C   UNL     1      32.811   7.732  47.268  1.00  0.00     0.084 C 
ATOM     33  C   UNL     1      34.245   5.843  47.667  1.00  0.00     0.017 C 
ATOM     34  C   UNL     1      33.936   6.926  46.644  1.00  0.00     0.017 C 
ENDBRANCH  29  30
ENDBRANCH  28  29
ENDBRANCH  27  28
ENDBRANCH   1  27
TORSDOF 8
ENDMDL
MODEL 4
REMARK minimizedAffinity -7.94024372
REMARK minimizedRMSD -1
REMARK SMILES COc1cc2c(Oc3ccc4[nH]c(C)cc4c3F)ncnc2cc1OCCCN1CCCC1
REMARK SMILES IDX 25 1 24 2 3 3 4 4 5 5 23 6 6 7 22 8 19 9 21 10 20 11 2 12
REMARK SMILES IDX 1 13 7 14 8 15 9 16 17 17 10 18 16 19 11 20 15 21 12 22
REMARK SMILES IDX 13 23 18 24 14 26 26 27 27 28 28 29 29 30 30 31 33 32 31 33
REMARK SMILES IDX 32 34
REMARK H PARENT 12 25
ROOT
ATOM      1  O   UNL     1      23.723   1.760  53.163  1.00  0.00    -0.490 OA
ENDROOT
BRANCH   1   2
ATOM      2  C   UNL     1      23.665   2.818  52.291  1.00  0.00     0.163 A 
ATOM      3  C   UNL     1      24.701   2.898  51.347  1.00  0.00     0.161 A 
ATOM      4  C   UNL     1      24.696   3.945  50.426  1.00  0.00     0.066 A 
ATOM      5  C   UNL     1      23.658   4.909  50.437  1.00  0.00     0.067 A 
ATOM      6  C   UNL     1      22.638   3.769  52.277  1.00  0.00     0.079 A 
ATOM      7  C   UNL     1      23.560   5.995  49.564  1.00  0.00     0.230 A 
ATOM      8  C   UNL     1      22.620   4.817  51.368  1.00  0.00     0.081 A 
ATOM      9  N   UNL     1      22.575   6.916  49.601  1.00  0.00    -0.201 NA
ATOM     10  N   UNL     1      21.615   5.702  51.415  1.00  0.00    -0.236 NA
ATOM     11  C   UNL     1      21.639   6.706  50.527  1.00  0.00     0.226 A 
BRANCH   3  12
ATOM     12  O   UNL     1      25.667   1.928  51.421  1.00  0.00    -0.493 OA
ATOM     13  C   UNL     1      26.987   2.333  51.754  1.00  0.00     0.278 C 
ENDBRANCH   3  12
BRANCH   7  14
ATOM     14  O   UNL     1      24.593   6.171  48.646  1.00  0.00    -0.435 OA
BRANCH  14  15
ATOM     15  C   UNL     1      25.536   7.114  48.980  1.00  0.00     0.165 A 
ATOM     16  C   UNL     1      25.141   8.174  49.794  1.00  0.00     0.052 A 
ATOM     17  C   UNL     1      26.872   6.975  48.583  1.00  0.00     0.175 A 
ATOM     18  C   UNL     1      26.063   9.145  50.203  1.00  0.00     0.031 A 
ATOM     19  C   UNL     1      27.818   7.937  48.981  1.00  0.00     0.039 A 
ATOM     20  C   UNL     1      27.392   9.000  49.779  1.00  0.00     0.049 A 
ATOM     21  C   UNL     1      29.212   8.111  48.762  1.00  0.00     0.034 A 
ATOM     22  N   UNL     1      28.494   9.788  50.024  1.00  0.00    -0.359 N 
ATOM     23  C   UNL     1      29.608   9.260  49.416  1.00  0.00     0.013 A 
ATOM     24  F   UNL     1      27.251   5.920  47.845  1.00  0.00    -0.202 F 
ATOM     25  H   UNL     1      28.481  10.635  50.574  1.00  0.00     0.166 HD
ATOM     26  C   UNL     1      30.937   9.909  49.521  1.00  0.00     0.064 C 
ENDBRANCH  14  15
ENDBRANCH   7  14
ENDBRANCH   1   2
BRANCH   1  27
ATOM     27  C   UNL     1      23.143   0.514  52.780  1.00  0.00     0.231 C 
BRANCH  27  28
ATOM     28  C   UNL     1      24.008  -0.689  53.145  1.00  0.00     0.057 C 
BRANCH  28  29
ATOM     29  C   UNL     1      24.738  -0.621  54.494  1.00  0.00     0.088 C 
BRANCH  29  30
ATOM     30  N   UNL     1      26.175  -0.916  54.419  1.00  0.00    -0.303 NA
ATOM     31  C   UNL     1      26.634  -1.211  53.054  1.00  0.00     0.084 C 
ATOM     32  C   UNL     1      26.974   0.252  54.813  1.00  0.00     0.084 C 
ATOM     33  C   UNL     1      28.142  -0.994  53.120  1.00  0.00     0.017 C 
ATOM     34  C   UNL     1      28.369  -0.111  54.338  1.00  0.00     0.017 C 
ENDBRANCH  29  30
ENDBRANCH  28  29
ENDBRANCH  27  28
ENDBRANCH   1  27
TORSDOF 8
ENDMDL
MODEL 5
REMARK minimizedAffinity -7.9187274
REMARK minimizedRMSD -1
REMARK SMILES COc1cc2c(Oc3ccc4[nH]c(C)cc4c3F)ncnc2cc1OCCCN1CCCC1
REMARK SMILES IDX 25 1 24 2 3 3 4 4 5 5 23 6 6 7 22 8 19 9 21 10 20 11 2 12
REMARK SMILES IDX 1 13 7 14 8 15 9 16 17 17 10 18 16 19 11 20 15 21 12 22
REMARK SMILES IDX 13 23 18 24 14 26 26 27 27 28 28 29 29 30 30 31 33 32 31 33
REMARK SMILES IDX 32 34
REMARK H PARENT 12 25
ROOT
ATOM      1  O   UNL     1      28.490   8.741  48.424  1.00  0.00    -0.490 OA
ENDROOT
BRANCH   1   2
ATOM      2  C   UNL     1      27.556   7.830  48.849  1.00  0.00     0.163 A 
ATOM      3  C   UNL     1      27.741   6.508  48.415  1.00  0.00     0.161 A 
ATOM      4  C   UNL     1      26.832   5.530  48.819  1.00  0.00     0.066 A 
ATOM      5  C   UNL     1      25.744   5.864  49.661  1.00  0.00     0.067 A 
ATOM      6  C   UNL     1      26.486   8.139  49.695  1.00  0.00     0.079 A 
ATOM      7  C   UNL     1      24.778   4.966  50.120  1.00  0.00     0.230 A 
ATOM      8  C   UNL     1      25.572   7.177  50.105  1.00  0.00     0.081 A 
ATOM      9  N   UNL     1      23.735   5.303  50.906  1.00  0.00    -0.201 NA
ATOM     10  N   UNL     1      24.560   7.541  50.905  1.00  0.00    -0.236 NA
ATOM     11  C   UNL     1      23.693   6.585  51.270  1.00  0.00     0.226 A 
BRANCH   3  12
ATOM     12  O   UNL     1      28.816   6.283  47.593  1.00  0.00    -0.493 OA
ATOM     13  C   UNL     1      29.737   5.270  47.973  1.00  0.00     0.278 C 
ENDBRANCH   3  12
BRANCH   7  14
ATOM     14  O   UNL     1      24.864   3.650  49.670  1.00  0.00    -0.435 OA
BRANCH  14  15
ATOM     15  C   UNL     1      24.038   2.747  50.298  1.00  0.00     0.165 A 
ATOM     16  C   UNL     1      22.848   2.398  49.662  1.00  0.00     0.052 A 
ATOM     17  C   UNL     1      24.416   2.133  51.499  1.00  0.00     0.175 A 
ATOM     18  C   UNL     1      21.984   1.454  50.229  1.00  0.00     0.031 A 
ATOM     19  C   UNL     1      23.565   1.181  52.088  1.00  0.00     0.039 A 
ATOM     20  C   UNL     1      22.369   0.864  51.442  1.00  0.00     0.049 A 
ATOM     21  C   UNL     1      23.623   0.390  53.269  1.00  0.00     0.034 A 
ATOM     22  N   UNL     1      21.729  -0.079  52.214  1.00  0.00    -0.359 N 
ATOM     23  C   UNL     1      22.479  -0.379  53.326  1.00  0.00     0.013 A 
ATOM     24  F   UNL     1      25.590   2.436  52.072  1.00  0.00    -0.202 F 
ATOM     25  H   UNL     1      20.833  -0.489  51.991  1.00  0.00     0.166 HD
ATOM     26  C   UNL     1      22.025  -1.372  54.330  1.00  0.00     0.064 C 
ENDBRANCH  14  15
ENDBRANCH   7  14
ENDBRANCH   1   2
BRANCH   1  27
ATOM     27  C   UNL     1      29.482   9.196  49.342  1.00  0.00     0.231 C 
BRANCH  27  28
ATOM     28  C   UNL     1      30.907   8.996  48.835  1.00  0.00     0.057 C 
BRANCH  28  29
ATOM     29  C   UNL     1      31.704   7.848  49.472  1.00  0.00     0.088 C 
BRANCH  29  30
ATOM     30  N   UNL     1      32.755   7.292  48.611  1.00  0.00    -0.303 NA
ATOM     31  C   UNL     1      33.996   8.080  48.630  1.00  0.00     0.084 C 
ATOM     32  C   UNL     1      33.175   5.966  49.082  1.00  0.00     0.084 C 
ATOM     33  C   UNL     1      35.054   7.113  48.112  1.00  0.00     0.017 C 
ATOM     34  C   UNL     1      34.466   5.725  48.321  1.00  0.00     0.017 C 
ENDBRANCH  29  30
ENDBRANCH  28  29
ENDBRANCH  27  28
ENDBRANCH   1  27
TORSDOF 8
ENDMDL
MODEL 6
REMARK minimizedAffinity -7.91857052
REMARK minimizedRMSD -1
REMARK SMILES COc1cc2c(Oc3ccc4[nH]c(C)cc4c3F)ncnc2cc1OCCCN1CCCC1
REMARK SMILES IDX 25 1 24 2 3 3 4 4 5 5 23 6 6 7 22 8 19 9 21 10 20 11 2 12
REMARK SMILES IDX 1 13 7 14 8 15 9 16 17 17 10 18 16 19 11 20 15 21 12 22
REMARK SMILES IDX 13 23 18 24 14 26 26 27 27 28 28 29 29 30 30 31 33 32 31 33
REMARK SMILES IDX 32 34
REMARK H PARENT 12 25
ROOT
ATOM      1  O   UNL     1      29.649   8.852  48.327  1.00  0.00    -0.490 OA
ENDROOT
BRANCH   1   2
ATOM      2  C   UNL     1      28.554   8.084  48.632  1.00  0.00     0.163 A 
ATOM      3  C   UNL     1      28.582   6.758  48.172  1.00  0.00     0.161 A 
ATOM      4  C   UNL     1      27.503   5.921  48.455  1.00  0.00     0.066 A 
ATOM      5  C   UNL     1      26.400   6.399  49.204  1.00  0.00     0.067 A 
ATOM      6  C   UNL     1      27.464   8.535  49.384  1.00  0.00     0.079 A 
ATOM      7  C   UNL     1      25.271   5.648  49.540  1.00  0.00     0.230 A 
ATOM      8  C   UNL     1      26.382   7.714  49.674  1.00  0.00     0.081 A 
ATOM      9  N   UNL     1      24.218   6.124  50.235  1.00  0.00    -0.201 NA
ATOM     10  N   UNL     1      25.363   8.210  50.388  1.00  0.00    -0.236 NA
ATOM     11  C   UNL     1      24.332   7.390  50.637  1.00  0.00     0.226 A 
BRANCH   3  12
ATOM     12  O   UNL     1      29.686   6.390  47.447  1.00  0.00    -0.493 OA
ATOM     13  C   UNL     1      30.685   5.625  48.107  1.00  0.00     0.278 C 
ENDBRANCH   3  12
BRANCH   7  14
ATOM     14  O   UNL     1      25.204   4.344  49.055  1.00  0.00    -0.435 OA
BRANCH  14  15
ATOM     15  C   UNL     1      25.196   3.351  50.006  1.00  0.00     0.165 A 
ATOM     16  C   UNL     1      26.416   2.972  50.565  1.00  0.00     0.052 A 
ATOM     17  C   UNL     1      23.995   2.791  50.460  1.00  0.00     0.175 A 
ATOM     18  C   UNL     1      26.471   1.996  51.567  1.00  0.00     0.031 A 
ATOM     19  C   UNL     1      24.025   1.809  51.466  1.00  0.00     0.039 A 
ATOM     20  C   UNL     1      25.261   1.432  51.995  1.00  0.00     0.049 A 
ATOM     21  C   UNL     1      23.032   1.045  52.140  1.00  0.00     0.034 A 
ATOM     22  N   UNL     1      25.016   0.470  52.948  1.00  0.00    -0.359 N 
ATOM     23  C   UNL     1      23.667   0.225  53.050  1.00  0.00     0.013 A 
ATOM     24  F   UNL     1      22.823   3.204  49.954  1.00  0.00    -0.202 F 
ATOM     25  H   UNL     1      25.732   0.009  53.493  1.00  0.00     0.166 HD
ATOM     26  C   UNL     1      23.124  -0.769  54.007  1.00  0.00     0.064 C 
ENDBRANCH  14  15
ENDBRANCH   7  14
ENDBRANCH   1   2
BRANCH   1  27
ATOM     27  C   UNL     1      30.357   9.501  49.382  1.00  0.00     0.231 C 
BRANCH  27  28
ATOM     28  C   UNL     1      30.638  10.974  49.101  1.00  0.00     0.057 C 
BRANCH  28  29
ATOM     29  C   UNL     1      30.365  11.460  47.670  1.00  0.00     0.088 C 
BRANCH  29  30
ATOM     30  N   UNL     1      29.148  12.269  47.529  1.00  0.00    -0.303 NA
ATOM     31  C   UNL     1      28.480  12.538  48.811  1.00  0.00     0.084 C 
ATOM     32  C   UNL     1      29.462  13.607  47.010  1.00  0.00     0.084 C 
ATOM     33  C   UNL     1      27.591  13.741  48.516  1.00  0.00     0.017 C 
ATOM     34  C   UNL     1      28.184  14.384  47.271  1.00  0.00     0.017 C 
ENDBRANCH  29  30
ENDBRANCH  28  29
ENDBRANCH  27  28
ENDBRANCH   1  27
TORSDOF 8
ENDMDL
MODEL 7
REMARK minimizedAffinity -7.91332722
REMARK minimizedRMSD -1
REMARK SMILES COc1cc2c(Oc3ccc4[nH]c(C)cc4c3F)ncnc2cc1OCCCN1CCCC1
REMARK SMILES IDX 25 1 24 2 3 3 4 4 5 5 23 6 6 7 22 8 19 9 21 10 20 11 2 12
REMARK SMILES IDX 1 13 7 14 8 15 9 16 17 17 10 18 16 19 11 20 15 21 12 22
REMARK SMILES IDX 13 23 18 24 14 26 26 27 27 28 28 29 29 30 30 31 33 32 31 33
REMARK SMILES IDX 32 34
REMARK H PARENT 12 25
ROOT
ATOM      1  O   UNL     1      20.965   3.544  52.602  1.00  0.00    -0.490 OA
ENDROOT
BRANCH   1   2
ATOM      2  C   UNL     1      22.144   3.720  51.922  1.00  0.00     0.163 A 
ATOM      3  C   UNL     1      22.139   4.708  50.924  1.00  0.00     0.161 A 
ATOM      4  C   UNL     1      23.307   4.944  50.201  1.00  0.00     0.066 A 
ATOM      5  C   UNL     1      24.483   4.204  50.473  1.00  0.00     0.067 A 
ATOM      6  C   UNL     1      23.319   3.010  52.189  1.00  0.00     0.079 A 
ATOM      7  C   UNL     1      25.702   4.357  49.808  1.00  0.00     0.230 A 
ATOM      8  C   UNL     1      24.490   3.232  51.477  1.00  0.00     0.081 A 
ATOM      9  N   UNL     1      26.808   3.630  50.065  1.00  0.00    -0.201 NA
ATOM     10  N   UNL     1      25.578   2.509  51.772  1.00  0.00    -0.236 NA
ATOM     11  C   UNL     1      26.686   2.745  51.055  1.00  0.00     0.226 A 
BRANCH   3  12
ATOM     12  O   UNL     1      20.951   5.365  50.725  1.00  0.00    -0.493 OA
ATOM     13  C   UNL     1      20.958   6.496  49.865  1.00  0.00     0.278 C 
ENDBRANCH   3  12
BRANCH   7  14
ATOM     14  O   UNL     1      25.747   5.274  48.760  1.00  0.00    -0.435 OA
BRANCH  14  15
ATOM     15  C   UNL     1      26.392   6.459  49.027  1.00  0.00     0.165 A 
ATOM     16  C   UNL     1      25.768   7.364  49.883  1.00  0.00     0.052 A 
ATOM     17  C   UNL     1      27.673   6.716  48.522  1.00  0.00     0.175 A 
ATOM     18  C   UNL     1      26.391   8.570  50.227  1.00  0.00     0.031 A 
ATOM     19  C   UNL     1      28.320   7.920  48.853  1.00  0.00     0.039 A 
ATOM     20  C   UNL     1      27.665   8.820  49.696  1.00  0.00     0.049 A 
ATOM     21  C   UNL     1      29.578   8.496  48.525  1.00  0.00     0.034 A 
ATOM     22  N   UNL     1      28.499   9.902  49.860  1.00  0.00    -0.359 N 
ATOM     23  C   UNL     1      29.667   9.719  49.158  1.00  0.00     0.013 A 
ATOM     24  F   UNL     1      28.287   5.812  47.744  1.00  0.00    -0.202 F 
ATOM     25  H   UNL     1      28.280  10.714  50.419  1.00  0.00     0.166 HD
ATOM     26  C   UNL     1      30.748  10.734  49.162  1.00  0.00     0.064 C 
ENDBRANCH  14  15
ENDBRANCH   7  14
ENDBRANCH   1   2
BRANCH   1  27
ATOM     27  C   UNL     1      20.421   2.231  52.718  1.00  0.00     0.231 C 
BRANCH  27  28
ATOM     28  C   UNL     1      19.430   1.891  51.609  1.00  0.00     0.057 C 
BRANCH  28  29
ATOM     29  C   UNL     1      19.809   0.722  50.688  1.00  0.00     0.088 C 
BRANCH  29  30
ATOM     30  N   UNL     1      20.316   1.130  49.372  1.00  0.00    -0.303 NA
ATOM     31  C   UNL     1      19.936   2.502  49.005  1.00  0.00     0.084 C 
ATOM     32  C   UNL     1      21.784   1.158  49.359  1.00  0.00     0.084 C 
ATOM     33  C   UNL     1      20.930   2.878  47.912  1.00  0.00     0.017 C 
ATOM     34  C   UNL     1      22.101   1.923  48.087  1.00  0.00     0.017 C 
ENDBRANCH  29  30
ENDBRANCH  28  29
ENDBRANCH  27  28
ENDBRANCH   1  27
TORSDOF 8
ENDMDL
MODEL 8
REMARK minimizedAffinity -7.88376617
REMARK minimizedRMSD -1
REMARK SMILES COc1cc2c(Oc3ccc4[nH]c(C)cc4c3F)ncnc2cc1OCCCN1CCCC1
REMARK SMILES IDX 25 1 24 2 3 3 4 4 5 5 23 6 6 7 22 8 19 9 21 10 20 11 2 12
REMARK SMILES IDX 1 13 7 14 8 15 9 16 17 17 10 18 16 19 11 20 15 21 12 22
REMARK SMILES IDX 13 23 18 24 14 26 26 27 27 28 28 29 29 30 30 31 33 32 31 33
REMARK SMILES IDX 32 34
REMARK H PARENT 12 25
ROOT
ATOM      1  O   UNL     1      25.131   1.122  53.416  1.00  0.00    -0.490 OA
ENDROOT
BRANCH   1   2
ATOM      2  C   UNL     1      25.136   2.027  52.385  1.00  0.00     0.163 A 
ATOM      3  C   UNL     1      26.384   2.287  51.797  1.00  0.00     0.161 A 
ATOM      4  C   UNL     1      26.458   3.191  50.738  1.00  0.00     0.066 A 
ATOM      5  C   UNL     1      25.290   3.832  50.257  1.00  0.00     0.067 A 
ATOM      6  C   UNL     1      23.991   2.657  51.886  1.00  0.00     0.079 A 
ATOM      7  C   UNL     1      25.253   4.753  49.208  1.00  0.00     0.230 A 
ATOM      8  C   UNL     1      24.047   3.560  50.833  1.00  0.00     0.081 A 
ATOM      9  N   UNL     1      24.136   5.370  48.774  1.00  0.00    -0.201 NA
ATOM     10  N   UNL     1      22.915   4.138  50.411  1.00  0.00    -0.236 NA
ATOM     11  C   UNL     1      23.014   5.013  49.399  1.00  0.00     0.226 A 
BRANCH   3  12
ATOM     12  O   UNL     1      27.459   1.628  52.337  1.00  0.00    -0.493 OA
ATOM     13  C   UNL     1      28.242   2.319  53.301  1.00  0.00     0.278 C 
ENDBRANCH   3  12
BRANCH   7  14
ATOM     14  O   UNL     1      26.469   5.107  48.625  1.00  0.00    -0.435 OA
BRANCH  14  15
ATOM     15  C   UNL     1      26.915   6.379  48.895  1.00  0.00     0.165 A 
ATOM     16  C   UNL     1      26.161   7.164  49.766  1.00  0.00     0.052 A 
ATOM     17  C   UNL     1      28.129   6.847  48.376  1.00  0.00     0.175 A 
ATOM     18  C   UNL     1      26.583   8.454  50.113  1.00  0.00     0.031 A 
ATOM     19  C   UNL     1      28.574   8.138  48.711  1.00  0.00     0.039 A 
ATOM     20  C   UNL     1      27.791   8.913  49.569  1.00  0.00     0.049 A 
ATOM     21  C   UNL     1      29.716   8.915  48.372  1.00  0.00     0.034 A 
ATOM     22  N   UNL     1      28.440  10.115  49.732  1.00  0.00    -0.359 N 
ATOM     23  C   UNL     1      29.612  10.132  49.014  1.00  0.00     0.013 A 
ATOM     24  F   UNL     1      28.873   6.060  47.584  1.00  0.00    -0.202 F 
ATOM     25  H   UNL     1      28.097  10.877  50.301  1.00  0.00     0.166 HD
ATOM     26  C   UNL     1      30.512  11.311  49.015  1.00  0.00     0.064 C 
ENDBRANCH  14  15
ENDBRANCH   7  14
ENDBRANCH   1   2
BRANCH   1  27
ATOM     27  C   UNL     1      24.611  -0.186  53.186  1.00  0.00     0.231 C 
BRANCH  27  28
ATOM     28  C   UNL     1      23.309  -0.455  53.936  1.00  0.00     0.057 C 
BRANCH  28  29
ATOM     29  C   UNL     1      22.194  -1.149  53.141  1.00  0.00     0.088 C 
BRANCH  29  30
ATOM     30  N   UNL     1      21.133  -0.247  52.674  1.00  0.00    -0.303 NA
ATOM     31  C   UNL     1      21.008   0.969  53.491  1.00  0.00     0.084 C 
ATOM     32  C   UNL     1      21.430   0.263  51.330  1.00  0.00     0.084 C 
ATOM     33  C   UNL     1      20.253   1.940  52.590  1.00  0.00     0.017 C 
ATOM     34  C   UNL     1      20.452   1.414  51.176  1.00  0.00     0.017 C 
ENDBRANCH  29  30
ENDBRANCH  28  29
ENDBRANCH  27  28
ENDBRANCH   1  27
TORSDOF 8
ENDMDL
MODEL 9
REMARK minimizedAffinity -7.82315826
REMARK minimizedRMSD -1
REMARK SMILES COc1cc2c(Oc3ccc4[nH]c(C)cc4c3F)ncnc2cc1OCCCN1CCCC1
REMARK SMILES IDX 25 1 24 2 3 3 4 4 5 5 23 6 6 7 22 8 19 9 21 10 20 11 2 12
REMARK SMILES IDX 1 13 7 14 8 15 9 16 17 17 10 18 16 19 11 20 15 21 12 22
REMARK SMILES IDX 13 23 18 24 14 26 26 27 27 28 28 29 29 30 30 31 33 32 31 33
REMARK SMILES IDX 32 34
REMARK H PARENT 12 25
ROOT
ATOM      1  O   UNL     1      31.234   8.521  47.891  1.00  0.00    -0.490 OA
ENDROOT
BRANCH   1   2
ATOM      2  C   UNL     1      29.941   8.199  48.219  1.00  0.00     0.163 A 
ATOM      3  C   UNL     1      29.502   6.927  47.820  1.00  0.00     0.161 A 
ATOM      4  C   UNL     1      28.200   6.532  48.129  1.00  0.00     0.066 A 
ATOM      5  C   UNL     1      27.337   7.400  48.842  1.00  0.00     0.067 A 
ATOM      6  C   UNL     1      29.080   9.036  48.937  1.00  0.00     0.079 A 
ATOM      7  C   UNL     1      26.019   7.107  49.199  1.00  0.00     0.230 A 
ATOM      8  C   UNL     1      27.782   8.659  49.252  1.00  0.00     0.081 A 
ATOM      9  N   UNL     1      25.202   7.951  49.861  1.00  0.00    -0.201 NA
ATOM     10  N   UNL     1      27.003   9.512  49.930  1.00  0.00    -0.236 NA
ATOM     11  C   UNL     1      25.752   9.116  50.206  1.00  0.00     0.226 A 
BRANCH   3  12
ATOM     12  O   UNL     1      30.404   6.163  47.125  1.00  0.00    -0.493 OA
ATOM     13  C   UNL     1      30.718   4.877  47.642  1.00  0.00     0.278 C 
ENDBRANCH   3  12
BRANCH   7  14
ATOM     14  O   UNL     1      25.498   5.886  48.774  1.00  0.00    -0.435 OA
BRANCH  14  15
ATOM     15  C   UNL     1      25.336   4.931  49.749  1.00  0.00     0.165 A 
ATOM     16  C   UNL     1      24.234   5.041  50.595  1.00  0.00     0.052 A 
ATOM     17  C   UNL     1      26.204   3.835  49.843  1.00  0.00     0.175 A 
ATOM     18  C   UNL     1      23.990   4.079  51.582  1.00  0.00     0.031 A 
ATOM     19  C   UNL     1      25.980   2.855  50.826  1.00  0.00     0.039 A 
ATOM     20  C   UNL     1      24.881   2.999  51.674  1.00  0.00     0.049 A 
ATOM     21  C   UNL     1      26.642   1.653  51.201  1.00  0.00     0.034 A 
ATOM     22  N   UNL     1      24.888   1.924  52.532  1.00  0.00    -0.359 N 
ATOM     23  C   UNL     1      25.950   1.095  52.256  1.00  0.00     0.013 A 
ATOM     24  F   UNL     1      27.230   3.711  48.987  1.00  0.00    -0.202 F 
ATOM     25  H   UNL     1      24.207   1.769  53.262  1.00  0.00     0.166 HD
ATOM     26  C   UNL     1      26.195  -0.145  53.031  1.00  0.00     0.064 C 
ENDBRANCH  14  15
ENDBRANCH   7  14
ENDBRANCH   1   2
BRANCH   1  27
ATOM     27  C   UNL     1      32.233   8.495  48.909  1.00  0.00     0.231 C 
BRANCH  27  28
ATOM     28  C   UNL     1      33.230   7.352  48.743  1.00  0.00     0.057 C 
BRANCH  28  29
ATOM     29  C   UNL     1      33.729   7.082  47.316  1.00  0.00     0.088 C 
BRANCH  29  30
ATOM     30  N   UNL     1      34.531   5.861  47.177  1.00  0.00    -0.303 NA
ATOM     31  C   UNL     1      34.355   4.922  48.295  1.00  0.00     0.084 C 
ATOM     32  C   UNL     1      34.113   5.087  46.001  1.00  0.00     0.084 C 
ATOM     33  C   UNL     1      34.843   3.591  47.737  1.00  0.00     0.017 C 
ATOM     34  C   UNL     1      34.776   3.739  46.224  1.00  0.00     0.017 C 
ENDBRANCH  29  30
ENDBRANCH  28  29
ENDBRANCH  27  28
ENDBRANCH   1  27
TORSDOF 8
ENDMDL
MODEL 10
REMARK minimizedAffinity -7.67501163
REMARK minimizedRMSD -1
REMARK SMILES COc1cc2c(Oc3ccc4[nH]c(C)cc4c3F)ncnc2cc1OCCCN1CCCC1
REMARK SMILES IDX 25 1 24 2 3 3 4 4 5 5 23 6 6 7 22 8 19 9 21 10 20 11 2 12
REMARK SMILES IDX 1 13 7 14 8 15 9 16 17 17 10 18 16 19 11 20 15 21 12 22
REMARK SMILES IDX 13 23 18 24 14 26 26 27 27 28 28 29 29 30 30 31 33 32 31 33
REMARK SMILES IDX 32 34
REMARK H PARENT 12 25
ROOT
ATOM      1  O   UNL     1      20.622   3.212  50.764  1.00  0.00    -0.490 OA
ENDROOT
BRANCH   1   2
ATOM      2  C   UNL     1      21.940   3.455  50.469  1.00  0.00     0.163 A 
ATOM      3  C   UNL     1      22.181   4.369  49.431  1.00  0.00     0.161 A 
ATOM      4  C   UNL     1      23.499   4.669  49.087  1.00  0.00     0.066 A 
ATOM      5  C   UNL     1      24.578   4.065  49.779  1.00  0.00     0.067 A 
ATOM      6  C   UNL     1      23.017   2.881  51.153  1.00  0.00     0.079 A 
ATOM      7  C   UNL     1      25.930   4.291  49.514  1.00  0.00     0.230 A 
ATOM      8  C   UNL     1      24.334   3.168  50.822  1.00  0.00     0.081 A 
ATOM      9  N   UNL     1      26.946   3.693  50.168  1.00  0.00    -0.201 NA
ATOM     10  N   UNL     1      25.320   2.574  51.507  1.00  0.00    -0.236 NA
ATOM     11  C   UNL     1      26.579   2.869  51.150  1.00  0.00     0.226 A 
BRANCH   3  12
ATOM     12  O   UNL     1      21.075   4.893  48.813  1.00  0.00    -0.493 OA
ATOM     13  C   UNL     1      21.118   6.260  48.430  1.00  0.00     0.278 C 
ENDBRANCH   3  12
BRANCH   7  14
ATOM     14  O   UNL     1      26.240   5.136  48.450  1.00  0.00    -0.435 OA
BRANCH  14  15
ATOM     15  C   UNL     1      26.765   6.360  48.791  1.00  0.00     0.165 A 
ATOM     16  C   UNL     1      26.039   7.161  49.671  1.00  0.00     0.052 A 
ATOM     17  C   UNL     1      28.027   6.760  48.333  1.00  0.00     0.175 A 
ATOM     18  C   UNL     1      26.539   8.400  50.089  1.00  0.00     0.031 A 
ATOM     19  C   UNL     1      28.551   8.001  48.739  1.00  0.00     0.039 A 
ATOM     20  C   UNL     1      27.795   8.793  49.606  1.00  0.00     0.049 A 
ATOM     21  C   UNL     1      29.757   8.706  48.473  1.00  0.00     0.034 A 
ATOM     22  N   UNL     1      28.521   9.937  49.844  1.00  0.00    -0.359 N 
ATOM     23  C   UNL     1      29.716   9.899  49.165  1.00  0.00     0.013 A 
ATOM     24  F   UNL     1      28.741   5.956  47.531  1.00  0.00    -0.202 F 
ATOM     25  H   UNL     1      28.214  10.698  50.434  1.00  0.00     0.166 HD
ATOM     26  C   UNL     1      30.698  11.008  49.248  1.00  0.00     0.064 C 
ENDBRANCH  14  15
ENDBRANCH   7  14
ENDBRANCH   1   2
BRANCH   1  27
ATOM     27  C   UNL     1      20.263   2.866  52.100  1.00  0.00     0.231 C 
BRANCH  27  28
ATOM     28  C   UNL     1      19.623   1.485  52.213  1.00  0.00     0.057 C 
BRANCH  28  29
ATOM     29  C   UNL     1      20.574   0.282  52.123  1.00  0.00     0.088 C 
BRANCH  29  30
ATOM     30  N   UNL     1      21.408   0.080  53.314  1.00  0.00    -0.303 NA
ATOM     31  C   UNL     1      20.989  -1.072  54.125  1.00  0.00     0.084 C 
ATOM     32  C   UNL     1      22.791  -0.239  52.940  1.00  0.00     0.084 C 
ATOM     33  C   UNL     1      22.215  -1.391  54.972  1.00  0.00     0.017 C 
ATOM     34  C   UNL     1      23.387  -0.754  54.238  1.00  0.00     0.017 C 
ENDBRANCH  29  30
ENDBRANCH  28  29
ENDBRANCH  27  28
ENDBRANCH   1  27
TORSDOF 8
ENDMDL
MODEL 11
REMARK minimizedAffinity -7.67112303
REMARK minimizedRMSD -1
REMARK SMILES COc1cc2c(Oc3ccc4[nH]c(C)cc4c3F)ncnc2cc1OCCCN1CCCC1
REMARK SMILES IDX 25 1 24 2 3 3 4 4 5 5 23 6 6 7 22 8 19 9 21 10 20 11 2 12
REMARK SMILES IDX 1 13 7 14 8 15 9 16 17 17 10 18 16 19 11 20 15 21 12 22
REMARK SMILES IDX 13 23 18 24 14 26 26 27 27 28 28 29 29 30 30 31 33 32 31 33
REMARK SMILES IDX 32 34
REMARK H PARENT 12 25
ROOT
ATOM      1  O   UNL     1      29.813   8.717  48.174  1.00  0.00    -0.490 OA
ENDROOT
BRANCH   1   2
ATOM      2  C   UNL     1      28.713   7.968  48.506  1.00  0.00     0.163 A 
ATOM      3  C   UNL     1      28.724   6.631  48.076  1.00  0.00     0.161 A 
ATOM      4  C   UNL     1      27.640   5.812  48.388  1.00  0.00     0.066 A 
ATOM      5  C   UNL     1      26.547   6.319  49.134  1.00  0.00     0.067 A 
ATOM      6  C   UNL     1      27.633   8.447  49.255  1.00  0.00     0.079 A 
ATOM      7  C   UNL     1      25.414   5.587  49.496  1.00  0.00     0.230 A 
ATOM      8  C   UNL     1      26.546   7.645  49.573  1.00  0.00     0.081 A 
ATOM      9  N   UNL     1      24.371   6.089  50.189  1.00  0.00    -0.201 NA
ATOM     10  N   UNL     1      25.537   8.167  50.282  1.00  0.00    -0.236 NA
ATOM     11  C   UNL     1      24.500   7.363  50.560  1.00  0.00     0.226 A 
BRANCH   3  12
ATOM     12  O   UNL     1      29.819   6.235  47.352  1.00  0.00    -0.493 OA
ATOM     13  C   UNL     1      30.791   5.433  48.008  1.00  0.00     0.278 C 
ENDBRANCH   3  12
BRANCH   7  14
ATOM     14  O   UNL     1      25.330   4.272  49.043  1.00  0.00    -0.435 OA
BRANCH  14  15
ATOM     15  C   UNL     1      24.921   3.343  49.971  1.00  0.00     0.165 A 
ATOM     16  C   UNL     1      23.607   2.884  49.900  1.00  0.00     0.052 A 
ATOM     17  C   UNL     1      25.816   2.813  50.909  1.00  0.00     0.175 A 
ATOM     18  C   UNL     1      23.141   1.908  50.790  1.00  0.00     0.031 A 
ATOM     19  C   UNL     1      25.372   1.832  51.813  1.00  0.00     0.039 A 
ATOM     20  C   UNL     1      24.046   1.403  51.735  1.00  0.00     0.049 A 
ATOM     21  C   UNL     1      25.984   1.102  52.869  1.00  0.00     0.034 A 
ATOM     22  N   UNL     1      23.868   0.455  52.716  1.00  0.00    -0.359 N 
ATOM     23  C   UNL     1      25.037   0.258  53.412  1.00  0.00     0.013 A 
ATOM     24  F   UNL     1      27.094   3.222  50.931  1.00  0.00    -0.202 F 
ATOM     25  H   UNL     1      22.998  -0.026  52.896  1.00  0.00     0.166 HD
ATOM     26  C   UNL     1      25.129  -0.716  54.527  1.00  0.00     0.064 C 
ENDBRANCH  14  15
ENDBRANCH   7  14
ENDBRANCH   1   2
BRANCH   1  27
ATOM     27  C   UNL     1      30.674   9.182  49.212  1.00  0.00     0.231 C 
BRANCH  27  28
ATOM     28  C   UNL     1      30.489  10.663  49.529  1.00  0.00     0.057 C 
BRANCH  28  29
ATOM     29  C   UNL     1      30.981  11.656  48.466  1.00  0.00     0.088 C 
BRANCH  29  30
ATOM     30  N   UNL     1      30.026  12.725  48.149  1.00  0.00    -0.303 NA
ATOM     31  C   UNL     1      29.406  12.574  46.824  1.00  0.00     0.084 C 
ATOM     32  C   UNL     1      28.885  12.704  49.073  1.00  0.00     0.084 C 
ATOM     33  C   UNL     1      28.154  13.440  46.903  1.00  0.00     0.017 C 
ATOM     34  C   UNL     1      27.873  13.605  48.390  1.00  0.00     0.017 C 
ENDBRANCH  29  30
ENDBRANCH  28  29
ENDBRANCH  27  28
ENDBRANCH   1  27
TORSDOF 8
ENDMDL
MODEL 12
REMARK minimizedAffinity -7.66715908
REMARK minimizedRMSD -1
REMARK SMILES COc1cc2c(Oc3ccc4[nH]c(C)cc4c3F)ncnc2cc1OCCCN1CCCC1
REMARK SMILES IDX 25 1 24 2 3 3 4 4 5 5 23 6 6 7 22 8 19 9 21 10 20 11 2 12
REMARK SMILES IDX 1 13 7 14 8 15 9 16 17 17 10 18 16 19 11 20 15 21 12 22
REMARK SMILES IDX 13 23 18 24 14 26 26 27 27 28 28 29 29 30 30 31 33 32 31 33
REMARK SMILES IDX 32 34
REMARK H PARENT 12 25
ROOT
ATOM      1  O   UNL     1      29.058   8.920  48.465  1.00  0.00    -0.490 OA
ENDROOT
BRANCH   1   2
ATOM      2  C   UNL     1      28.031   8.071  48.792  1.00  0.00     0.163 A 
ATOM      3  C   UNL     1      28.148   6.752  48.326  1.00  0.00     0.161 A 
ATOM      4  C   UNL     1      27.143   5.835  48.631  1.00  0.00     0.066 A 
ATOM      5  C   UNL     1      26.024   6.227  49.407  1.00  0.00     0.067 A 
ATOM      6  C   UNL     1      26.928   8.436  49.571  1.00  0.00     0.079 A 
ATOM      7  C   UNL     1      24.963   5.392  49.766  1.00  0.00     0.230 A 
ATOM      8  C   UNL     1      25.918   7.536  49.883  1.00  0.00     0.081 A 
ATOM      9  N   UNL     1      23.895   5.785  50.488  1.00  0.00    -0.201 NA
ATOM     10  N   UNL     1      24.881   7.952  50.622  1.00  0.00    -0.236 NA
ATOM     11  C   UNL     1      23.921   7.055  50.892  1.00  0.00     0.226 A 
BRANCH   3  12
ATOM     12  O   UNL     1      29.260   6.470  47.574  1.00  0.00    -0.493 OA
ATOM     13  C   UNL     1      30.284   5.692  48.176  1.00  0.00     0.278 C 
ENDBRANCH   3  12
BRANCH   7  14
ATOM     14  O   UNL     1      24.984   4.087  49.278  1.00  0.00    -0.435 OA
BRANCH  14  15
ATOM     15  C   UNL     1      24.955   3.092  50.226  1.00  0.00     0.165 A 
ATOM     16  C   UNL     1      26.159   2.728  50.828  1.00  0.00     0.052 A 
ATOM     17  C   UNL     1      23.746   2.515  50.636  1.00  0.00     0.175 A 
ATOM     18  C   UNL     1      26.191   1.750  51.829  1.00  0.00     0.031 A 
ATOM     19  C   UNL     1      23.753   1.531  51.640  1.00  0.00     0.039 A 
ATOM     20  C   UNL     1      24.974   1.170  52.213  1.00  0.00     0.049 A 
ATOM     21  C   UNL     1      22.747   0.752  52.276  1.00  0.00     0.034 A 
ATOM     22  N   UNL     1      24.708   0.202  53.154  1.00  0.00    -0.359 N 
ATOM     23  C   UNL     1      23.360  -0.061  53.207  1.00  0.00     0.013 A 
ATOM     24  F   UNL     1      22.588   2.914  50.088  1.00  0.00    -0.202 F 
ATOM     25  H   UNL     1      25.410  -0.251  53.724  1.00  0.00     0.166 HD
ATOM     26  C   UNL     1      22.795  -1.065  54.142  1.00  0.00     0.064 C 
ENDBRANCH  14  15
ENDBRANCH   7  14
ENDBRANCH   1   2
BRANCH   1  27
ATOM     27  C   UNL     1      28.768  10.103  47.721  1.00  0.00     0.231 C 
BRANCH  27  28
ATOM     28  C   UNL     1      28.211   9.817  46.330  1.00  0.00     0.057 C 
BRANCH  28  29
ATOM     29  C   UNL     1      27.014  10.668  45.885  1.00  0.00     0.088 C 
BRANCH  29  30
ATOM     30  N   UNL     1      25.725   9.966  45.924  1.00  0.00    -0.303 NA
ATOM     31  C   UNL     1      25.863   8.503  45.916  1.00  0.00     0.084 C 
ATOM     32  C   UNL     1      25.011  10.244  47.177  1.00  0.00     0.084 C 
ATOM     33  C   UNL     1      24.524   8.005  46.448  1.00  0.00     0.017 C 
ATOM     34  C   UNL     1      23.922   9.187  47.193  1.00  0.00     0.017 C 
ENDBRANCH  29  30
ENDBRANCH  28  29
ENDBRANCH  27  28
ENDBRANCH   1  27
TORSDOF 8
ENDMDL
MODEL 13
REMARK minimizedAffinity -7.65038157
REMARK minimizedRMSD -1
REMARK SMILES COc1cc2c(Oc3ccc4[nH]c(C)cc4c3F)ncnc2cc1OCCCN1CCCC1
REMARK SMILES IDX 25 1 24 2 3 3 4 4 5 5 23 6 6 7 22 8 19 9 21 10 20 11 2 12
REMARK SMILES IDX 1 13 7 14 8 15 9 16 17 17 10 18 16 19 11 20 15 21 12 22
REMARK SMILES IDX 13 23 18 24 14 26 26 27 27 28 28 29 29 30 30 31 33 32 31 33
REMARK SMILES IDX 32 34
REMARK H PARENT 12 25
ROOT
ATOM      1  O   UNL     1      28.217   8.522  48.447  1.00  0.00    -0.490 OA
ENDROOT
BRANCH   1   2
ATOM      2  C   UNL     1      27.319   7.596  48.916  1.00  0.00     0.163 A 
ATOM      3  C   UNL     1      27.550   6.265  48.536  1.00  0.00     0.161 A 
ATOM      4  C   UNL     1      26.679   5.273  48.986  1.00  0.00     0.066 A 
ATOM      5  C   UNL     1      25.583   5.603  49.820  1.00  0.00     0.067 A 
ATOM      6  C   UNL     1      26.241   7.902  49.754  1.00  0.00     0.079 A 
ATOM      7  C   UNL     1      24.651   4.690  50.322  1.00  0.00     0.230 A 
ATOM      8  C   UNL     1      25.365   6.926  50.209  1.00  0.00     0.081 A 
ATOM      9  N   UNL     1      23.601   5.023  51.099  1.00  0.00    -0.201 NA
ATOM     10  N   UNL     1      24.344   7.286  50.998  1.00  0.00    -0.236 NA
ATOM     11  C   UNL     1      23.513   6.317  51.408  1.00  0.00     0.226 A 
BRANCH   3  12
ATOM     12  O   UNL     1      28.629   6.044  47.719  1.00  0.00    -0.493 OA
ATOM     13  C   UNL     1      29.853   5.662  48.329  1.00  0.00     0.278 C 
ENDBRANCH   3  12
BRANCH   7  14
ATOM     14  O   UNL     1      24.783   3.361  49.927  1.00  0.00    -0.435 OA
BRANCH  14  15
ATOM     15  C   UNL     1      24.560   2.420  50.905  1.00  0.00     0.165 A 
ATOM     16  C   UNL     1      25.573   2.189  51.833  1.00  0.00     0.052 A 
ATOM     17  C   UNL     1      23.324   1.771  51.017  1.00  0.00     0.175 A 
ATOM     18  C   UNL     1      25.392   1.274  52.877  1.00  0.00     0.031 A 
ATOM     19  C   UNL     1      23.117   0.847  52.057  1.00  0.00     0.039 A 
ATOM     20  C   UNL     1      24.155   0.618  52.962  1.00  0.00     0.049 A 
ATOM     21  C   UNL     1      22.027   0.026  52.456  1.00  0.00     0.034 A 
ATOM     22  N   UNL     1      23.704  -0.315  53.867  1.00  0.00    -0.359 N 
ATOM     23  C   UNL     1      22.412  -0.683  53.576  1.00  0.00     0.013 A 
ATOM     24  F   UNL     1      22.336   2.043  50.150  1.00  0.00    -0.202 F 
ATOM     25  H   UNL     1      24.251  -0.676  54.637  1.00  0.00     0.166 HD
ATOM     26  C   UNL     1      21.678  -1.676  54.397  1.00  0.00     0.064 C 
ENDBRANCH  14  15
ENDBRANCH   7  14
ENDBRANCH   1   2
BRANCH   1  27
ATOM     27  C   UNL     1      28.787   9.458  49.360  1.00  0.00     0.231 C 
BRANCH  27  28
ATOM     28  C   UNL     1      28.774  10.892  48.837  1.00  0.00     0.057 C 
BRANCH  28  29
ATOM     29  C   UNL     1      29.148  11.083  47.360  1.00  0.00     0.088 C 
BRANCH  29  30
ATOM     30  N   UNL     1      30.567  10.856  47.061  1.00  0.00    -0.303 NA
ATOM     31  C   UNL     1      30.971  11.376  45.746  1.00  0.00     0.084 C 
ATOM     32  C   UNL     1      31.427  11.583  48.004  1.00  0.00     0.084 C 
ATOM     33  C   UNL     1      32.488  11.490  45.847  1.00  0.00     0.017 C 
ATOM     34  C   UNL     1      32.790  11.526  47.338  1.00  0.00     0.017 C 
ENDBRANCH  29  30
ENDBRANCH  28  29
ENDBRANCH  27  28
ENDBRANCH   1  27
TORSDOF 8
ENDMDL
MODEL 14
REMARK minimizedAffinity -7.61939096
REMARK minimizedRMSD -1
REMARK SMILES COc1cc2c(Oc3ccc4[nH]c(C)cc4c3F)ncnc2cc1OCCCN1CCCC1
REMARK SMILES IDX 25 1 24 2 3 3 4 4 5 5 23 6 6 7 22 8 19 9 21 10 20 11 2 12
REMARK SMILES IDX 1 13 7 14 8 15 9 16 17 17 10 18 16 19 11 20 15 21 12 22
REMARK SMILES IDX 13 23 18 24 14 26 26 27 27 28 28 29 29 30 30 31 33 32 31 33
REMARK SMILES IDX 32 34
REMARK H PARENT 12 25
ROOT
ATOM      1  O   UNL     1      26.690   8.850  48.779  1.00  0.00    -0.490 OA
ENDROOT
BRANCH   1   2
ATOM      2  C   UNL     1      25.923   7.782  49.173  1.00  0.00     0.163 A 
ATOM      3  C   UNL     1      26.435   6.511  48.871  1.00  0.00     0.161 A 
ATOM      4  C   UNL     1      25.709   5.382  49.251  1.00  0.00     0.066 A 
ATOM      5  C   UNL     1      24.478   5.517  49.939  1.00  0.00     0.067 A 
ATOM      6  C   UNL     1      24.714   7.897  49.867  1.00  0.00     0.079 A 
ATOM      7  C   UNL     1      23.673   4.457  50.361  1.00  0.00     0.230 A 
ATOM      8  C   UNL     1      23.980   6.784  50.252  1.00  0.00     0.081 A 
ATOM      9  N   UNL     1      22.493   4.601  50.997  1.00  0.00    -0.201 NA
ATOM     10  N   UNL     1      22.822   6.961  50.903  1.00  0.00    -0.236 NA
ATOM     11  C   UNL     1      22.137   5.862  51.247  1.00  0.00     0.226 A 
BRANCH   3  12
ATOM     12  O   UNL     1      27.627   6.480  48.194  1.00  0.00    -0.493 OA
ATOM     13  C   UNL     1      28.480   5.364  48.407  1.00  0.00     0.278 C 
ENDBRANCH   3  12
BRANCH   7  14
ATOM     14  O   UNL     1      24.090   3.168  50.033  1.00  0.00    -0.435 OA
BRANCH  14  15
ATOM     15  C   UNL     1      24.623   2.430  51.063  1.00  0.00     0.165 A 
ATOM     16  C   UNL     1      23.761   1.617  51.797  1.00  0.00     0.052 A 
ATOM     17  C   UNL     1      26.000   2.430  51.318  1.00  0.00     0.175 A 
ATOM     18  C   UNL     1      24.248   0.809  52.832  1.00  0.00     0.031 A 
ATOM     19  C   UNL     1      26.513   1.627  52.353  1.00  0.00     0.039 A 
ATOM     20  C   UNL     1      25.627   0.837  53.087  1.00  0.00     0.049 A 
ATOM     21  C   UNL     1      27.814   1.394  52.878  1.00  0.00     0.034 A 
ATOM     22  N   UNL     1      26.372   0.159  54.025  1.00  0.00    -0.359 N 
ATOM     23  C   UNL     1      27.702   0.484  53.910  1.00  0.00     0.013 A 
ATOM     24  F   UNL     1      26.826   3.174  50.568  1.00  0.00    -0.202 F 
ATOM     25  H   UNL     1      25.989  -0.485  54.703  1.00  0.00     0.166 HD
ATOM     26  C   UNL     1      28.731  -0.108  54.799  1.00  0.00     0.064 C 
ENDBRANCH  14  15
ENDBRANCH   7  14
ENDBRANCH   1   2
BRANCH   1  27
ATOM     27  C   UNL     1      27.697   9.342  49.661  1.00  0.00     0.231 C 
BRANCH  27  28
ATOM     28  C   UNL     1      28.563  10.432  49.036  1.00  0.00     0.057 C 
BRANCH  28  29
ATOM     29  C   UNL     1      30.065  10.134  48.929  1.00  0.00     0.088 C 
BRANCH  29  30
ATOM     30  N   UNL     1      30.387   8.717  48.715  1.00  0.00    -0.303 NA
ATOM     31  C   UNL     1      30.792   8.419  47.333  1.00  0.00     0.084 C 
ATOM     32  C   UNL     1      31.550   8.314  49.516  1.00  0.00     0.084 C 
ATOM     33  C   UNL     1      31.529   7.090  47.446  1.00  0.00     0.017 C 
ATOM     34  C   UNL     1      31.939   6.979  48.907  1.00  0.00     0.017 C 
ENDBRANCH  29  30
ENDBRANCH  28  29
ENDBRANCH  27  28
ENDBRANCH   1  27
TORSDOF 8
ENDMDL
MODEL 15
REMARK minimizedAffinity -7.58809805
REMARK minimizedRMSD -1
REMARK SMILES COc1cc2c(Oc3ccc4[nH]c(C)cc4c3F)ncnc2cc1OCCCN1CCCC1
REMARK SMILES IDX 25 1 24 2 3 3 4 4 5 5 23 6 6 7 22 8 19 9 21 10 20 11 2 12
REMARK SMILES IDX 1 13 7 14 8 15 9 16 17 17 10 18 16 19 11 20 15 21 12 22
REMARK SMILES IDX 13 23 18 24 14 26 26 27 27 28 28 29 29 30 30 31 33 32 31 33
REMARK SMILES IDX 32 34
REMARK H PARENT 12 25
ROOT
ATOM      1  O   UNL     1      20.171   4.860  49.571  1.00  0.00    -0.490 OA
ENDROOT
BRANCH   1   2
ATOM      2  C   UNL     1      21.399   4.458  50.033  1.00  0.00     0.163 A 
ATOM      3  C   UNL     1      21.422   3.900  51.321  1.00  0.00     0.161 A 
ATOM      4  C   UNL     1      22.638   3.463  51.847  1.00  0.00     0.066 A 
ATOM      5  C   UNL     1      23.830   3.574  51.090  1.00  0.00     0.067 A 
ATOM      6  C   UNL     1      22.583   4.544  49.293  1.00  0.00     0.079 A 
ATOM      7  C   UNL     1      25.096   3.172  51.522  1.00  0.00     0.230 A 
ATOM      8  C   UNL     1      23.801   4.115  49.803  1.00  0.00     0.081 A 
ATOM      9  N   UNL     1      26.226   3.302  50.797  1.00  0.00    -0.201 NA
ATOM     10  N   UNL     1      24.901   4.237  49.048  1.00  0.00    -0.236 NA
ATOM     11  C   UNL     1      26.060   3.821  49.580  1.00  0.00     0.226 A 
BRANCH   3  12
ATOM     12  O   UNL     1      20.221   3.845  51.981  1.00  0.00    -0.493 OA
ATOM     13  C   UNL     1      19.600   2.575  52.118  1.00  0.00     0.278 C 
ENDBRANCH   3  12
BRANCH   7  14
ATOM     14  O   UNL     1      25.200   2.672  52.818  1.00  0.00    -0.435 OA
BRANCH  14  15
ATOM     15  C   UNL     1      25.959   1.535  52.963  1.00  0.00     0.165 A 
ATOM     16  C   UNL     1      25.410   0.325  52.540  1.00  0.00     0.052 A 
ATOM     17  C   UNL     1      27.273   1.596  53.445  1.00  0.00     0.175 A 
ATOM     18  C   UNL     1      26.146  -0.863  52.623  1.00  0.00     0.031 A 
ATOM     19  C   UNL     1      28.033   0.416  53.537  1.00  0.00     0.039 A 
ATOM     20  C   UNL     1      27.453  -0.785  53.126  1.00  0.00     0.049 A 
ATOM     21  C   UNL     1      29.353   0.115  53.972  1.00  0.00     0.034 A 
ATOM     22  N   UNL     1      28.392  -1.773  53.317  1.00  0.00    -0.359 N 
ATOM     23  C   UNL     1      29.552  -1.242  53.828  1.00  0.00     0.013 A 
ATOM     24  F   UNL     1      27.809   2.774  53.796  1.00  0.00    -0.202 F 
ATOM     25  H   UNL     1      28.244  -2.751  53.110  1.00  0.00     0.166 HD
ATOM     26  C   UNL     1      30.734  -2.088  54.126  1.00  0.00     0.064 C 
ENDBRANCH  14  15
ENDBRANCH   7  14
ENDBRANCH   1   2
BRANCH   1  27
ATOM     27  C   UNL     1      20.080   6.047  48.785  1.00  0.00     0.231 C 
BRANCH  27  28
ATOM     28  C   UNL     1      20.245   7.324  49.603  1.00  0.00     0.057 C 
BRANCH  28  29
ATOM     29  C   UNL     1      21.019   8.469  48.935  1.00  0.00     0.088 C 
BRANCH  29  30
ATOM     30  N   UNL     1      22.407   8.610  49.396  1.00  0.00    -0.303 NA
ATOM     31  C   UNL     1      22.683   7.869  50.635  1.00  0.00     0.084 C 
ATOM     32  C   UNL     1      23.345   8.032  48.425  1.00  0.00     0.084 C 
ATOM     33  C   UNL     1      24.201   7.738  50.653  1.00  0.00     0.017 C 
ATOM     34  C   UNL     1      24.641   7.946  49.211  1.00  0.00     0.017 C 
ENDBRANCH  29  30
ENDBRANCH  28  29
ENDBRANCH  27  28
ENDBRANCH   1  27
TORSDOF 8
ENDMDL
MODEL 16
REMARK minimizedAffinity -7.58177471
REMARK minimizedRMSD -1
REMARK SMILES COc1cc2c(Oc3ccc4[nH]c(C)cc4c3F)ncnc2cc1OCCCN1CCCC1
REMARK SMILES IDX 25 1 24 2 3 3 4 4 5 5 23 6 6 7 22 8 19 9 21 10 20 11 2 12
REMARK SMILES IDX 1 13 7 14 8 15 9 16 17 17 10 18 16 19 11 20 15 21 12 22
REMARK SMILES IDX 13 23 18 24 14 26 26 27 27 28 28 29 29 30 30 31 33 32 31 33
REMARK SMILES IDX 32 34
REMARK H PARENT 12 25
ROOT
ATOM      1  O   UNL     1      22.602   2.845  46.983  1.00  0.00    -0.490 OA
ENDROOT
BRANCH   1   2
ATOM      2  C   UNL     1      22.440   2.468  48.292  1.00  0.00     0.163 A 
ATOM      3  C   UNL     1      23.392   2.960  49.199  1.00  0.00     0.161 A 
ATOM      4  C   UNL     1      23.280   2.622  50.547  1.00  0.00     0.066 A 
ATOM      5  C   UNL     1      22.216   1.801  50.996  1.00  0.00     0.067 A 
ATOM      6  C   UNL     1      21.387   1.673  48.756  1.00  0.00     0.079 A 
ATOM      7  C   UNL     1      22.014   1.401  52.319  1.00  0.00     0.230 A 
ATOM      8  C   UNL     1      21.262   1.326  50.094  1.00  0.00     0.081 A 
ATOM      9  N   UNL     1      21.008   0.602  52.728  1.00  0.00    -0.201 NA
ATOM     10  N   UNL     1      20.238   0.550  50.472  1.00  0.00    -0.236 NA
ATOM     11  C   UNL     1      20.158   0.228  51.771  1.00  0.00     0.226 A 
BRANCH   3  12
ATOM     12  O   UNL     1      24.390   3.738  48.670  1.00  0.00    -0.493 OA
ATOM     13  C   UNL     1      25.463   4.107  49.524  1.00  0.00     0.278 C 
ENDBRANCH   3  12
BRANCH   7  14
ATOM     14  O   UNL     1      22.962   1.799  53.259  1.00  0.00    -0.435 OA
BRANCH  14  15
ATOM     15  C   UNL     1      24.083   1.009  53.350  1.00  0.00     0.165 A 
ATOM     16  C   UNL     1      23.909  -0.374  53.357  1.00  0.00     0.052 A 
ATOM     17  C   UNL     1      25.367   1.569  53.356  1.00  0.00     0.175 A 
ATOM     18  C   UNL     1      25.013  -1.234  53.407  1.00  0.00     0.031 A 
ATOM     19  C   UNL     1      26.492   0.727  53.405  1.00  0.00     0.039 A 
ATOM     20  C   UNL     1      26.290  -0.654  53.431  1.00  0.00     0.049 A 
ATOM     21  C   UNL     1      27.897   0.944  53.431  1.00  0.00     0.034 A 
ATOM     22  N   UNL     1      27.533  -1.244  53.479  1.00  0.00    -0.359 N 
ATOM     23  C   UNL     1      28.520  -0.286  53.477  1.00  0.00     0.013 A 
ATOM     24  F   UNL     1      25.523   2.901  53.292  1.00  0.00    -0.202 F 
ATOM     25  H   UNL     1      27.693  -2.241  53.513  1.00  0.00     0.166 HD
ATOM     26  C   UNL     1      29.958  -0.647  53.519  1.00  0.00     0.064 C 
ENDBRANCH  14  15
ENDBRANCH   7  14
ENDBRANCH   1   2
BRANCH   1  27
ATOM     27  C   UNL     1      21.624   3.690  46.378  1.00  0.00     0.231 C 
BRANCH  27  28
ATOM     28  C   UNL     1      21.858   5.172  46.651  1.00  0.00     0.057 C 
BRANCH  28  29
ATOM     29  C   UNL     1      20.692   5.943  47.286  1.00  0.00     0.088 C 
BRANCH  29  30
ATOM     30  N   UNL     1      20.908   6.318  48.690  1.00  0.00    -0.303 NA
ATOM     31  C   UNL     1      20.501   5.270  49.637  1.00  0.00     0.084 C 
ATOM     32  C   UNL     1      22.336   6.509  48.970  1.00  0.00     0.084 C 
ATOM     33  C   UNL     1      21.239   5.630  50.922  1.00  0.00     0.017 C 
ATOM     34  C   UNL     1      22.388   6.528  50.487  1.00  0.00     0.017 C 
ENDBRANCH  29  30
ENDBRANCH  28  29
ENDBRANCH  27  28
ENDBRANCH   1  27
TORSDOF 8
ENDMDL
MODEL 17
REMARK minimizedAffinity -7.57944345
REMARK minimizedRMSD -1
REMARK SMILES COc1cc2c(Oc3ccc4[nH]c(C)cc4c3F)ncnc2cc1OCCCN1CCCC1
REMARK SMILES IDX 25 1 24 2 3 3 4 4 5 5 23 6 6 7 22 8 19 9 21 10 20 11 2 12
REMARK SMILES IDX 1 13 7 14 8 15 9 16 17 17 10 18 16 19 11 20 15 21 12 22
REMARK SMILES IDX 13 23 18 24 14 26 26 27 27 28 28 29 29 30 30 31 33 32 31 33
REMARK SMILES IDX 32 34
REMARK H PARENT 12 25
ROOT
ATOM      1  O   UNL     1      24.847   0.045  52.836  1.00  0.00    -0.490 OA
ENDROOT
BRANCH   1   2
ATOM      2  C   UNL     1      23.942   1.054  52.617  1.00  0.00     0.163 A 
ATOM      3  C   UNL     1      24.481   2.337  52.431  1.00  0.00     0.161 A 
ATOM      4  C   UNL     1      23.617   3.406  52.195  1.00  0.00     0.066 A 
ATOM      5  C   UNL     1      22.217   3.198  52.137  1.00  0.00     0.067 A 
ATOM      6  C   UNL     1      22.558   0.865  52.540  1.00  0.00     0.079 A 
ATOM      7  C   UNL     1      21.266   4.196  51.911  1.00  0.00     0.230 A 
ATOM      8  C   UNL     1      21.685   1.918  52.308  1.00  0.00     0.081 A 
ATOM      9  N   UNL     1      19.934   3.987  51.879  1.00  0.00    -0.201 NA
ATOM     10  N   UNL     1      20.369   1.673  52.258  1.00  0.00    -0.236 NA
ATOM     11  C   UNL     1      19.557   2.719  52.043  1.00  0.00     0.226 A 
BRANCH   3  12
ATOM     12  O   UNL     1      25.846   2.440  52.516  1.00  0.00    -0.493 OA
ATOM     13  C   UNL     1      26.574   2.582  51.304  1.00  0.00     0.278 C 
ENDBRANCH   3  12
BRANCH   7  14
ATOM     14  O   UNL     1      21.729   5.504  51.786  1.00  0.00    -0.435 OA
BRANCH  14  15
ATOM     15  C   UNL     1      22.173   5.866  50.536  1.00  0.00     0.165 A 
ATOM     16  C   UNL     1      21.337   5.615  49.449  1.00  0.00     0.052 A 
ATOM     17  C   UNL     1      23.390   6.537  50.364  1.00  0.00     0.175 A 
ATOM     18  C   UNL     1      21.712   5.996  48.155  1.00  0.00     0.031 A 
ATOM     19  C   UNL     1      23.789   6.930  49.074  1.00  0.00     0.039 A 
ATOM     20  C   UNL     1      22.944   6.650  47.999  1.00  0.00     0.049 A 
ATOM     21  C   UNL     1      24.927   7.601  48.546  1.00  0.00     0.034 A 
ATOM     22  N   UNL     1      23.558   7.130  46.866  1.00  0.00    -0.359 N 
ATOM     23  C   UNL     1      24.762   7.714  47.181  1.00  0.00     0.013 A 
ATOM     24  F   UNL     1      24.160   6.822  51.425  1.00  0.00    -0.202 F 
ATOM     25  H   UNL     1      23.174   7.060  45.933  1.00  0.00     0.166 HD
ATOM     26  C   UNL     1      25.633   8.318  46.144  1.00  0.00     0.064 C 
ENDBRANCH  14  15
ENDBRANCH   7  14
ENDBRANCH   1   2
BRANCH   1  27
ATOM     27  C   UNL     1      24.645  -0.840  53.936  1.00  0.00     0.231 C 
BRANCH  27  28
ATOM     28  C   UNL     1      25.579  -0.562  55.110  1.00  0.00     0.057 C 
BRANCH  28  29
ATOM     29  C   UNL     1      26.776   0.357  54.828  1.00  0.00     0.088 C 
BRANCH  29  30
ATOM     30  N   UNL     1      28.043  -0.350  54.606  1.00  0.00    -0.303 NA
ATOM     31  C   UNL     1      27.991  -1.288  53.475  1.00  0.00     0.084 C 
ATOM     32  C   UNL     1      29.111   0.587  54.236  1.00  0.00     0.084 C 
ATOM     33  C   UNL     1      29.455  -1.516  53.119  1.00  0.00     0.017 C 
ATOM     34  C   UNL     1      30.202  -0.329  53.709  1.00  0.00     0.017 C 
ENDBRANCH  29  30
ENDBRANCH  28  29
ENDBRANCH  27  28
ENDBRANCH   1  27
TORSDOF 8
ENDMDL
MODEL 18
REMARK minimizedAffinity -7.54218578
REMARK minimizedRMSD -1
REMARK SMILES COc1cc2c(Oc3ccc4[nH]c(C)cc4c3F)ncnc2cc1OCCCN1CCCC1
REMARK SMILES IDX 25 1 24 2 3 3 4 4 5 5 23 6 6 7 22 8 19 9 21 10 20 11 2 12
REMARK SMILES IDX 1 13 7 14 8 15 9 16 17 17 10 18 16 19 11 20 15 21 12 22
REMARK SMILES IDX 13 23 18 24 14 26 26 27 27 28 28 29 29 30 30 31 33 32 31 33
REMARK SMILES IDX 32 34
REMARK H PARENT 12 25
ROOT
ATOM      1  O   UNL     1      24.040   2.039  51.171  1.00  0.00    -0.490 OA
ENDROOT
BRANCH   1   2
ATOM      2  C   UNL     1      24.608   3.131  50.564  1.00  0.00     0.163 A 
ATOM      3  C   UNL     1      23.809   4.284  50.498  1.00  0.00     0.161 A 
ATOM      4  C   UNL     1      24.329   5.433  49.902  1.00  0.00     0.066 A 
ATOM      5  C   UNL     1      25.645   5.438  49.378  1.00  0.00     0.067 A 
ATOM      6  C   UNL     1      25.911   3.160  50.057  1.00  0.00     0.079 A 
ATOM      7  C   UNL     1      26.260   6.530  48.760  1.00  0.00     0.230 A 
ATOM      8  C   UNL     1      26.442   4.294  49.459  1.00  0.00     0.081 A 
ATOM      9  N   UNL     1      27.507   6.514  48.247  1.00  0.00    -0.201 NA
ATOM     10  N   UNL     1      27.693   4.253  48.981  1.00  0.00    -0.236 NA
ATOM     11  C   UNL     1      28.166   5.365  48.402  1.00  0.00     0.226 A 
BRANCH   3  12
ATOM     12  O   UNL     1      22.546   4.180  51.021  1.00  0.00    -0.493 OA
ATOM     13  C   UNL     1      22.263   4.899  52.213  1.00  0.00     0.278 C 
ENDBRANCH   3  12
BRANCH   7  14
ATOM     14  O   UNL     1      25.498   7.686  48.600  1.00  0.00    -0.435 OA
BRANCH  14  15
ATOM     15  C   UNL     1      26.137   8.747  48.004  1.00  0.00     0.165 A 
ATOM     16  C   UNL     1      26.071   8.853  46.616  1.00  0.00     0.052 A 
ATOM     17  C   UNL     1      26.766   9.737  48.769  1.00  0.00     0.175 A 
ATOM     18  C   UNL     1      26.666   9.932  45.951  1.00  0.00     0.031 A 
ATOM     19  C   UNL     1      27.371  10.831  48.125  1.00  0.00     0.039 A 
ATOM     20  C   UNL     1      27.309  10.904  46.732  1.00  0.00     0.049 A 
ATOM     21  C   UNL     1      28.082  11.979  48.571  1.00  0.00     0.034 A 
ATOM     22  N   UNL     1      27.967  12.052  46.357  1.00  0.00    -0.359 N 
ATOM     23  C   UNL     1      28.441  12.719  47.462  1.00  0.00     0.013 A 
ATOM     24  F   UNL     1      26.774   9.653  50.108  1.00  0.00    -0.202 F 
ATOM     25  H   UNL     1      28.085  12.358  45.401  1.00  0.00     0.166 HD
ATOM     26  C   UNL     1      29.189  13.994  47.345  1.00  0.00     0.064 C 
ENDBRANCH  14  15
ENDBRANCH   7  14
ENDBRANCH   1   2
BRANCH   1  27
ATOM     27  C   UNL     1      24.454   1.686  52.490  1.00  0.00     0.231 C 
BRANCH  27  28
ATOM     28  C   UNL     1      25.003   0.266  52.587  1.00  0.00     0.057 C 
BRANCH  28  29
ATOM     29  C   UNL     1      25.307  -0.254  53.999  1.00  0.00     0.088 C 
BRANCH  29  30
ATOM     30  N   UNL     1      26.698  -0.681  54.200  1.00  0.00    -0.303 NA
ATOM     31  C   UNL     1      27.356  -1.111  52.958  1.00  0.00     0.084 C 
ATOM     32  C   UNL     1      27.529   0.436  54.668  1.00  0.00     0.084 C 
ATOM     33  C   UNL     1      28.843  -1.026  53.282  1.00  0.00     0.017 C 
ATOM     34  C   UNL     1      28.942  -0.084  54.473  1.00  0.00     0.017 C 
ENDBRANCH  29  30
ENDBRANCH  28  29
ENDBRANCH  27  28
ENDBRANCH   1  27
TORSDOF 8
ENDMDL
MODEL 19
REMARK minimizedAffinity -7.48860264
REMARK minimizedRMSD -1
REMARK SMILES COc1cc2c(Oc3ccc4[nH]c(C)cc4c3F)ncnc2cc1OCCCN1CCCC1
REMARK SMILES IDX 25 1 24 2 3 3 4 4 5 5 23 6 6 7 22 8 19 9 21 10 20 11 2 12
REMARK SMILES IDX 1 13 7 14 8 15 9 16 17 17 10 18 16 19 11 20 15 21 12 22
REMARK SMILES IDX 13 23 18 24 14 26 26 27 27 28 28 29 29 30 30 31 33 32 31 33
REMARK SMILES IDX 32 34
REMARK H PARENT 12 25
ROOT
ATOM      1  O   UNL     1      30.114   9.225  48.851  1.00  0.00    -0.490 OA
ENDROOT
BRANCH   1   2
ATOM      2  C   UNL     1      28.910   8.576  48.961  1.00  0.00     0.163 A 
ATOM      3  C   UNL     1      28.851   7.287  48.406  1.00  0.00     0.161 A 
ATOM      4  C   UNL     1      27.659   6.568  48.492  1.00  0.00     0.066 A 
ATOM      5  C   UNL     1      26.527   7.127  49.135  1.00  0.00     0.067 A 
ATOM      6  C   UNL     1      27.788   9.105  49.607  1.00  0.00     0.079 A 
ATOM      7  C   UNL     1      25.288   6.497  49.273  1.00  0.00     0.230 A 
ATOM      8  C   UNL     1      26.594   8.403  49.700  1.00  0.00     0.081 A 
ATOM      9  N   UNL     1      24.214   7.049  49.871  1.00  0.00    -0.201 NA
ATOM     10  N   UNL     1      25.552   8.971  50.321  1.00  0.00    -0.236 NA
ATOM     11  C   UNL     1      24.413   8.266  50.380  1.00  0.00     0.226 A 
BRANCH   3  12
ATOM     12  O   UNL     1      29.992   6.836  47.794  1.00  0.00    -0.493 OA
ATOM     13  C   UNL     1      30.312   5.458  47.927  1.00  0.00     0.278 C 
ENDBRANCH   3  12
BRANCH   7  14
ATOM     14  O   UNL     1      25.141   5.242  48.684  1.00  0.00    -0.435 OA
BRANCH  14  15
ATOM     15  C   UNL     1      24.936   4.194  49.551  1.00  0.00     0.165 A 
ATOM     16  C   UNL     1      23.622   3.810  49.811  1.00  0.00     0.052 A 
ATOM     17  C   UNL     1      26.012   3.480  50.093  1.00  0.00     0.175 A 
ATOM     18  C   UNL     1      23.347   2.725  50.652  1.00  0.00     0.031 A 
ATOM     19  C   UNL     1      25.762   2.386  50.941  1.00  0.00     0.039 A 
ATOM     20  C   UNL     1      24.437   2.034  51.202  1.00  0.00     0.049 A 
ATOM     21  C   UNL     1      26.585   1.470  51.651  1.00  0.00     0.034 A 
ATOM     22  N   UNL     1      24.466   0.948  52.047  1.00  0.00    -0.359 N 
ATOM     23  C   UNL     1      25.764   0.591  52.327  1.00  0.00     0.013 A 
ATOM     24  F   UNL     1      27.273   3.825  49.790  1.00  0.00    -0.202 F 
ATOM     25  H   UNL     1      23.646   0.483  52.409  1.00  0.00     0.166 HD
ATOM     26  C   UNL     1      26.085  -0.554  53.213  1.00  0.00     0.064 C 
ENDBRANCH  14  15
ENDBRANCH   7  14
ENDBRANCH   1   2
BRANCH   1  27
ATOM     27  C   UNL     1      30.125  10.644  48.706  1.00  0.00     0.231 C 
BRANCH  27  28
ATOM     28  C   UNL     1      30.168  11.100  47.250  1.00  0.00     0.057 C 
BRANCH  28  29
ATOM     29  C   UNL     1      28.844  11.589  46.648  1.00  0.00     0.088 C 
BRANCH  29  30
ATOM     30  N   UNL     1      28.220  10.647  45.711  1.00  0.00    -0.303 NA
ATOM     31  C   UNL     1      29.066   9.481  45.415  1.00  0.00     0.084 C 
ATOM     32  C   UNL     1      27.003  10.060  46.285  1.00  0.00     0.084 C 
ATOM     33  C   UNL     1      28.088   8.448  44.868  1.00  0.00     0.017 C 
ATOM     34  C   UNL     1      26.718   8.889  45.362  1.00  0.00     0.017 C 
ENDBRANCH  29  30
ENDBRANCH  28  29
ENDBRANCH  27  28
ENDBRANCH   1  27
TORSDOF 8
ENDMDL
MODEL 20
REMARK minimizedAffinity -7.41896677
REMARK minimizedRMSD -1
REMARK SMILES COc1cc2c(Oc3ccc4[nH]c(C)cc4c3F)ncnc2cc1OCCCN1CCCC1
REMARK SMILES IDX 25 1 24 2 3 3 4 4 5 5 23 6 6 7 22 8 19 9 21 10 20 11 2 12
REMARK SMILES IDX 1 13 7 14 8 15 9 16 17 17 10 18 16 19 11 20 15 21 12 22
REMARK SMILES IDX 13 23 18 24 14 26 26 27 27 28 28 29 29 30 30 31 33 32 31 33
REMARK SMILES IDX 32 34
REMARK H PARENT 12 25
ROOT
ATOM      1  O   UNL     1      23.170   6.371  47.256  1.00  0.00    -0.490 OA
ENDROOT
BRANCH   1   2
ATOM      2  C   UNL     1      22.955   5.313  48.103  1.00  0.00     0.163 A 
ATOM      3  C   UNL     1      23.290   5.523  49.450  1.00  0.00     0.161 A 
ATOM      4  C   UNL     1      23.087   4.491  50.366  1.00  0.00     0.066 A 
ATOM      5  C   UNL     1      22.544   3.253  49.945  1.00  0.00     0.067 A 
ATOM      6  C   UNL     1      22.404   4.090  47.708  1.00  0.00     0.079 A 
ATOM      7  C   UNL     1      22.305   2.156  50.776  1.00  0.00     0.230 A 
ATOM      8  C   UNL     1      22.197   3.052  48.607  1.00  0.00     0.081 A 
ATOM      9  N   UNL     1      21.806   0.976  50.357  1.00  0.00    -0.201 NA
ATOM     10  N   UNL     1      21.679   1.900  48.162  1.00  0.00    -0.236 NA
ATOM     11  C   UNL     1      21.504   0.919  49.059  1.00  0.00     0.226 A 
BRANCH   3  12
ATOM     12  O   UNL     1      23.819   6.750  49.761  1.00  0.00    -0.493 OA
ATOM     13  C   UNL     1      25.026   6.778  50.510  1.00  0.00     0.278 C 
ENDBRANCH   3  12
BRANCH   7  14
ATOM     14  O   UNL     1      22.678   2.274  52.113  1.00  0.00    -0.435 OA
BRANCH  14  15
ATOM     15  C   UNL     1      23.633   1.386  52.550  1.00  0.00     0.165 A 
ATOM     16  C   UNL     1      23.204   0.249  53.232  1.00  0.00     0.052 A 
ATOM     17  C   UNL     1      24.988   1.573  52.250  1.00  0.00     0.175 A 
ATOM     18  C   UNL     1      24.123  -0.714  53.667  1.00  0.00     0.031 A 
ATOM     19  C   UNL     1      25.931   0.620  52.675  1.00  0.00     0.039 A 
ATOM     20  C   UNL     1      25.478  -0.500  53.375  1.00  0.00     0.049 A 
ATOM     21  C   UNL     1      27.343   0.496  52.557  1.00  0.00     0.034 A 
ATOM     22  N   UNL     1      26.583  -1.264  53.672  1.00  0.00    -0.359 N 
ATOM     23  C   UNL     1      27.723  -0.675  53.180  1.00  0.00     0.013 A 
ATOM     24  F   UNL     1      25.382   2.644  51.543  1.00  0.00    -0.202 F 
ATOM     25  H   UNL     1      26.555  -2.136  54.182  1.00  0.00     0.166 HD
ATOM     26  C   UNL     1      29.060  -1.291  53.357  1.00  0.00     0.064 C 
ENDBRANCH  14  15
ENDBRANCH   7  14
ENDBRANCH   1   2
BRANCH   1  27
ATOM     27  C   UNL     1      22.085   6.864  46.473  1.00  0.00     0.231 C 
BRANCH  27  28
ATOM     28  C   UNL     1      21.038   7.608  47.298  1.00  0.00     0.057 C 
BRANCH  28  29
ATOM     29  C   UNL     1      19.569   7.288  46.987  1.00  0.00     0.088 C 
BRANCH  29  30
ATOM     30  N   UNL     1      18.932   6.376  47.945  1.00  0.00    -0.303 NA
ATOM     31  C   UNL     1      18.957   4.971  47.511  1.00  0.00     0.084 C 
ATOM     32  C   UNL     1      19.659   6.361  49.221  1.00  0.00     0.084 C 
ATOM     33  C   UNL     1      18.725   4.186  48.796  1.00  0.00     0.017 C 
ATOM     34  C   UNL     1      19.094   5.140  49.923  1.00  0.00     0.017 C 
ENDBRANCH  29  30
ENDBRANCH  28  29
ENDBRANCH  27  28
ENDBRANCH   1  27
TORSDOF 8
ENDMDL
