MODEL 1
REMARK minimizedAffinity -9.70413017
REMARK minimizedRMSD -1
REMARK SMILES CC(C)(C)c1nc(-c2cccc(NS(=O)(=O)c3c(F)cccc3F)c2F)c(-c2ccnc(N)n2)s1
REMARK SMILES IDX 8 1 9 2 10 3 11 4 12 5 25 6 26 7 7 8 5 9 6 10 35 11 27 12
REMARK SMILES IDX 2 13 1 14 3 15 4 16 28 17 29 18 34 19 30 20 32 21 31 22
REMARK SMILES IDX 33 23 13 26 14 28 15 29 16 30 17 31 18 32 23 33 20 34 22 35
REMARK SMILES IDX 21 36 19 37 24 38
REMARK H PARENT 33 24 33 25 13 27
ROOT
ATOM      1  C   UNL     1      25.118   2.378  51.394  1.00  0.00     0.040 A 
ATOM      2  C   UNL     1      26.065   2.044  50.417  1.00  0.00     0.013 A 
ATOM      3  C   UNL     1      26.579   3.027  49.566  1.00  0.00     0.003 A 
ATOM      4  C   UNL     1      26.166   4.355  49.695  1.00  0.00     0.030 A 
ATOM      5  C   UNL     1      25.251   4.704  50.684  1.00  0.00     0.085 A 
ATOM      6  C   UNL     1      24.726   3.713  51.522  1.00  0.00     0.156 A 
ATOM      7  F   UNL     1      23.858   4.079  52.479  1.00  0.00    -0.204 F 
ENDROOT
BRANCH   1   8
ATOM      8  C   UNL     1      24.607   1.341  52.275  1.00  0.00     0.094 A 
ATOM      9  C   UNL     1      22.958   0.176  53.208  1.00  0.00     0.099 A 
ATOM     10  N   UNL     1      23.238   1.184  52.408  1.00  0.00    -0.240 NA
ATOM     11  S   UNL     1      24.340  -0.602  53.885  1.00  0.00    -0.116 S 
ATOM     12  C   UNL     1      25.379   0.482  53.044  1.00  0.00     0.081 A 
BRANCH   9  13
ATOM     13  C   UNL     1      21.536  -0.271  53.551  1.00  0.00     0.014 C 
ATOM     14  C   UNL     1      20.625  -0.120  52.320  1.00  0.00     0.018 C 
ATOM     15  C   UNL     1      21.542  -1.761  53.963  1.00  0.00     0.018 C 
ATOM     16  C   UNL     1      20.961   0.540  54.729  1.00  0.00     0.018 C 
ENDBRANCH   9  13
BRANCH  12  17
ATOM     17  C   UNL     1      26.825   0.389  53.249  1.00  0.00     0.088 A 
ATOM     18  C   UNL     1      27.523  -0.771  52.985  1.00  0.00     0.050 A 
ATOM     19  N   UNL     1      27.412   1.508  53.719  1.00  0.00    -0.212 NA
ATOM     20  C   UNL     1      28.869  -0.719  53.249  1.00  0.00     0.117 A 
ATOM     21  C   UNL     1      28.728   1.454  53.923  1.00  0.00     0.220 A 
ATOM     22  N   UNL     1      29.489   0.373  53.727  1.00  0.00    -0.222 NA
BRANCH  21  23
ATOM     23  N   UNL     1      29.341   2.586  54.421  1.00  0.00    -0.368 N 
ATOM     24  H   UNL     1      28.657   3.161  54.897  1.00  0.00     0.159 HD
ATOM     25  H   UNL     1      30.170   2.328  54.942  1.00  0.00     0.159 HD
ENDBRANCH  21  23
ENDBRANCH  12  17
ENDBRANCH   1   8
BRANCH   5  26
ATOM     26  N   UNL     1      24.853   6.065  50.884  1.00  0.00    -0.276 N 
ATOM     27  H   UNL     1      25.612   6.726  51.064  1.00  0.00     0.180 HD
BRANCH  26  28
ATOM     28  S   UNL     1      23.735   6.743  49.800  1.00  0.00     0.267 S 
ATOM     29  O   UNL     1      24.380   6.775  48.505  1.00  0.00    -0.201 OA
ATOM     30  O   UNL     1      23.226   7.962  50.393  1.00  0.00    -0.201 OA
BRANCH  28  31
ATOM     31  C   UNL     1      22.456   5.549  49.717  1.00  0.00     0.158 A 
ATOM     32  C   UNL     1      22.358   4.658  48.660  1.00  0.00     0.146 A 
ATOM     33  C   UNL     1      21.523   5.500  50.746  1.00  0.00     0.146 A 
ATOM     34  C   UNL     1      21.322   3.722  48.625  1.00  0.00     0.041 A 
ATOM     35  C   UNL     1      20.483   4.571  50.721  1.00  0.00     0.041 A 
ATOM     36  C   UNL     1      20.382   3.677  49.656  1.00  0.00     0.006 A 
ATOM     37  F   UNL     1      23.228   4.663  47.643  1.00  0.00    -0.205 F 
ATOM     38  F   UNL     1      21.580   6.369  51.767  1.00  0.00    -0.205 F 
ENDBRANCH  28  31
ENDBRANCH  26  28
ENDBRANCH   5  26
TORSDOF 7
ENDMDL
MODEL 2
REMARK minimizedAffinity -9.63267708
REMARK minimizedRMSD -1
REMARK SMILES CC(C)(C)c1nc(-c2cccc(NS(=O)(=O)c3c(F)cccc3F)c2F)c(-c2ccnc(N)n2)s1
REMARK SMILES IDX 8 1 9 2 10 3 11 4 12 5 25 6 26 7 7 8 5 9 6 10 35 11 27 12
REMARK SMILES IDX 2 13 1 14 3 15 4 16 28 17 29 18 34 19 30 20 32 21 31 22
REMARK SMILES IDX 33 23 13 26 14 28 15 29 16 30 17 31 18 32 23 33 20 34 22 35
REMARK SMILES IDX 21 36 19 37 24 38
REMARK H PARENT 33 24 33 25 13 27
ROOT
ATOM      1  C   UNL     1      25.088   2.391  51.391  1.00  0.00     0.040 A 
ATOM      2  C   UNL     1      26.045   2.061  50.422  1.00  0.00     0.013 A 
ATOM      3  C   UNL     1      26.563   3.047  49.576  1.00  0.00     0.003 A 
ATOM      4  C   UNL     1      26.145   4.374  49.704  1.00  0.00     0.030 A 
ATOM      5  C   UNL     1      25.221   4.719  50.686  1.00  0.00     0.085 A 
ATOM      6  C   UNL     1      24.691   3.725  51.517  1.00  0.00     0.156 A 
ATOM      7  F   UNL     1      23.814   4.087  52.468  1.00  0.00    -0.204 F 
ENDROOT
BRANCH   1   8
ATOM      8  C   UNL     1      24.573   1.351  52.266  1.00  0.00     0.094 A 
ATOM      9  C   UNL     1      22.919   0.185  53.190  1.00  0.00     0.099 A 
ATOM     10  N   UNL     1      23.203   1.197  52.395  1.00  0.00    -0.240 NA
ATOM     11  S   UNL     1      24.298  -0.598  53.867  1.00  0.00    -0.116 S 
ATOM     12  C   UNL     1      25.342   0.488  53.033  1.00  0.00     0.081 A 
BRANCH   9  13
ATOM     13  C   UNL     1      21.496  -0.260  53.527  1.00  0.00     0.014 C 
ATOM     14  C   UNL     1      21.496  -1.734  53.969  1.00  0.00     0.018 C 
ATOM     15  C   UNL     1      20.945   0.591  54.693  1.00  0.00     0.018 C 
ATOM     16  C   UNL     1      20.549  -0.075  52.324  1.00  0.00     0.018 C 
ENDBRANCH   9  13
BRANCH  12  17
ATOM     17  C   UNL     1      26.786   0.391  53.242  1.00  0.00     0.088 A 
ATOM     18  C   UNL     1      27.482  -0.770  52.979  1.00  0.00     0.050 A 
ATOM     19  N   UNL     1      27.375   1.508  53.714  1.00  0.00    -0.212 NA
ATOM     20  C   UNL     1      28.828  -0.722  53.246  1.00  0.00     0.117 A 
ATOM     21  C   UNL     1      28.691   1.451  53.922  1.00  0.00     0.220 A 
ATOM     22  N   UNL     1      29.449   0.368  53.727  1.00  0.00    -0.222 NA
BRANCH  21  23
ATOM     23  N   UNL     1      29.305   2.581  54.422  1.00  0.00    -0.368 N 
ATOM     24  H   UNL     1      28.621   3.157  54.897  1.00  0.00     0.159 HD
ATOM     25  H   UNL     1      30.132   2.320  54.945  1.00  0.00     0.159 HD
ENDBRANCH  21  23
ENDBRANCH  12  17
ENDBRANCH   1   8
BRANCH   5  26
ATOM     26  N   UNL     1      24.817   6.078  50.884  1.00  0.00    -0.276 N 
ATOM     27  H   UNL     1      25.571   6.740  51.083  1.00  0.00     0.180 HD
BRANCH  26  28
ATOM     28  S   UNL     1      23.720   6.761  49.781  1.00  0.00     0.267 S 
ATOM     29  O   UNL     1      24.375   6.759  48.491  1.00  0.00    -0.201 OA
ATOM     30  O   UNL     1      23.231   7.998  50.351  1.00  0.00    -0.201 OA
BRANCH  28  31
ATOM     31  C   UNL     1      22.419   5.591  49.708  1.00  0.00     0.158 A 
ATOM     32  C   UNL     1      21.480   5.478  50.722  1.00  0.00     0.146 A 
ATOM     33  C   UNL     1      22.331   4.761  48.596  1.00  0.00     0.146 A 
ATOM     34  C   UNL     1      20.459   4.530  50.631  1.00  0.00     0.041 A 
ATOM     35  C   UNL     1      21.317   3.810  48.494  1.00  0.00     0.041 A 
ATOM     36  C   UNL     1      20.375   3.694  49.516  1.00  0.00     0.006 A 
ATOM     37  F   UNL     1      21.519   6.250  51.814  1.00  0.00    -0.205 F 
ATOM     38  F   UNL     1      23.242   4.832  47.613  1.00  0.00    -0.205 F 
ENDBRANCH  28  31
ENDBRANCH  26  28
ENDBRANCH   5  26
TORSDOF 7
ENDMDL
MODEL 3
REMARK minimizedAffinity -9.57892704
REMARK minimizedRMSD -1
REMARK SMILES CC(C)(C)c1nc(-c2cccc(NS(=O)(=O)c3c(F)cccc3F)c2F)c(-c2ccnc(N)n2)s1
REMARK SMILES IDX 8 1 9 2 10 3 11 4 12 5 25 6 26 7 7 8 5 9 6 10 35 11 27 12
REMARK SMILES IDX 2 13 1 14 3 15 4 16 28 17 29 18 34 19 30 20 32 21 31 22
REMARK SMILES IDX 33 23 13 26 14 28 15 29 16 30 17 31 18 32 23 33 20 34 22 35
REMARK SMILES IDX 21 36 19 37 24 38
REMARK H PARENT 33 24 33 25 13 27
ROOT
ATOM      1  C   UNL     1      25.088   2.339  51.515  1.00  0.00     0.040 A 
ATOM      2  C   UNL     1      26.024   2.009  50.525  1.00  0.00     0.013 A 
ATOM      3  C   UNL     1      26.531   2.997  49.675  1.00  0.00     0.003 A 
ATOM      4  C   UNL     1      26.121   4.325  49.817  1.00  0.00     0.030 A 
ATOM      5  C   UNL     1      25.218   4.669  50.819  1.00  0.00     0.085 A 
ATOM      6  C   UNL     1      24.700   3.674  51.655  1.00  0.00     0.156 A 
ATOM      7  F   UNL     1      23.843   4.034  52.624  1.00  0.00    -0.204 F 
ENDROOT
BRANCH   1   8
ATOM      8  C   UNL     1      24.585   1.296  52.394  1.00  0.00     0.094 A 
ATOM      9  C   UNL     1      22.943   0.124  53.331  1.00  0.00     0.099 A 
ATOM     10  N   UNL     1      23.216   1.136  52.534  1.00  0.00    -0.240 NA
ATOM     11  S   UNL     1      24.331  -0.654  53.997  1.00  0.00    -0.116 S 
ATOM     12  C   UNL     1      25.363   0.436  53.154  1.00  0.00     0.081 A 
BRANCH   9  13
ATOM     13  C   UNL     1      21.525  -0.328  53.681  1.00  0.00     0.014 C 
ATOM     14  C   UNL     1      21.541  -1.788  54.165  1.00  0.00     0.018 C 
ATOM     15  C   UNL     1      20.964   0.550  54.823  1.00  0.00     0.018 C 
ATOM     16  C   UNL     1      20.577  -0.188  52.474  1.00  0.00     0.018 C 
ENDBRANCH   9  13
BRANCH  12  17
ATOM     17  C   UNL     1      26.810   0.345  53.351  1.00  0.00     0.088 A 
ATOM     18  C   UNL     1      27.517  -0.794  53.031  1.00  0.00     0.050 A 
ATOM     19  N   UNL     1      27.389   1.446  53.871  1.00  0.00    -0.212 NA
ATOM     20  C   UNL     1      28.863  -0.744  53.293  1.00  0.00     0.117 A 
ATOM     21  C   UNL     1      28.707   1.394  54.069  1.00  0.00     0.220 A 
ATOM     22  N   UNL     1      29.476   0.329  53.820  1.00  0.00    -0.222 NA
BRANCH  21  23
ATOM     23  N   UNL     1      29.312   2.506  54.618  1.00  0.00    -0.368 N 
ATOM     24  H   UNL     1      28.625   3.052  55.123  1.00  0.00     0.159 HD
ATOM     25  H   UNL     1      30.145   2.230  55.124  1.00  0.00     0.159 HD
ENDBRANCH  21  23
ENDBRANCH  12  17
ENDBRANCH   1   8
BRANCH   5  26
ATOM     26  N   UNL     1      24.824   6.029  51.032  1.00  0.00    -0.276 N 
ATOM     27  H   UNL     1      25.572   6.667  51.316  1.00  0.00     0.180 HD
BRANCH  26  28
ATOM     28  S   UNL     1      23.835   6.773  49.868  1.00  0.00     0.267 S 
ATOM     29  O   UNL     1      23.141   7.850  50.541  1.00  0.00    -0.201 OA
ATOM     30  O   UNL     1      23.089   5.733  49.192  1.00  0.00    -0.201 OA
BRANCH  28  31
ATOM     31  C   UNL     1      24.975   7.501  48.755  1.00  0.00     0.158 A 
ATOM     32  C   UNL     1      26.186   8.020  49.187  1.00  0.00     0.146 A 
ATOM     33  C   UNL     1      24.649   7.549  47.405  1.00  0.00     0.146 A 
ATOM     34  C   UNL     1      27.068   8.597  48.271  1.00  0.00     0.041 A 
ATOM     35  C   UNL     1      25.521   8.124  46.481  1.00  0.00     0.041 A 
ATOM     36  C   UNL     1      26.737   8.651  46.915  1.00  0.00     0.006 A 
ATOM     37  F   UNL     1      26.549   8.000  50.474  1.00  0.00    -0.205 F 
ATOM     38  F   UNL     1      23.472   7.078  46.966  1.00  0.00    -0.205 F 
ENDBRANCH  28  31
ENDBRANCH  26  28
ENDBRANCH   5  26
TORSDOF 7
ENDMDL
MODEL 4
REMARK minimizedAffinity -9.57140923
REMARK minimizedRMSD -1
REMARK SMILES CC(C)(C)c1nc(-c2cccc(NS(=O)(=O)c3c(F)cccc3F)c2F)c(-c2ccnc(N)n2)s1
REMARK SMILES IDX 8 1 9 2 10 3 11 4 12 5 25 6 26 7 7 8 5 9 6 10 35 11 27 12
REMARK SMILES IDX 2 13 1 14 3 15 4 16 28 17 29 18 34 19 30 20 32 21 31 22
REMARK SMILES IDX 33 23 13 26 14 28 15 29 16 30 17 31 18 32 23 33 20 34 22 35
REMARK SMILES IDX 21 36 19 37 24 38
REMARK H PARENT 33 24 33 25 13 27
ROOT
ATOM      1  C   UNL     1      25.105   2.363  51.484  1.00  0.00     0.040 A 
ATOM      2  C   UNL     1      26.032   2.026  50.489  1.00  0.00     0.013 A 
ATOM      3  C   UNL     1      26.545   3.011  49.638  1.00  0.00     0.003 A 
ATOM      4  C   UNL     1      26.149   4.342  49.785  1.00  0.00     0.030 A 
ATOM      5  C   UNL     1      25.255   4.694  50.792  1.00  0.00     0.085 A 
ATOM      6  C   UNL     1      24.731   3.702  51.629  1.00  0.00     0.156 A 
ATOM      7  F   UNL     1      23.882   4.069  52.603  1.00  0.00    -0.204 F 
ENDROOT
BRANCH   1   8
ATOM      8  C   UNL     1      24.596   1.324  52.364  1.00  0.00     0.094 A 
ATOM      9  C   UNL     1      22.948   0.159  53.299  1.00  0.00     0.099 A 
ATOM     10  N   UNL     1      23.226   1.169  52.500  1.00  0.00    -0.240 NA
ATOM     11  S   UNL     1      24.331  -0.622  53.970  1.00  0.00    -0.116 S 
ATOM     12  C   UNL     1      25.369   0.463  53.128  1.00  0.00     0.081 A 
BRANCH   9  13
ATOM     13  C   UNL     1      21.527  -0.287  53.645  1.00  0.00     0.014 C 
ATOM     14  C   UNL     1      20.619  -0.159  52.409  1.00  0.00     0.018 C 
ATOM     15  C   UNL     1      21.536  -1.770  54.081  1.00  0.00     0.018 C 
ATOM     16  C   UNL     1      20.945   0.540  54.808  1.00  0.00     0.018 C 
ENDBRANCH   9  13
BRANCH  12  17
ATOM     17  C   UNL     1      26.815   0.368  53.329  1.00  0.00     0.088 A 
ATOM     18  C   UNL     1      27.518  -0.777  53.020  1.00  0.00     0.050 A 
ATOM     19  N   UNL     1      27.397   1.470  53.843  1.00  0.00    -0.212 NA
ATOM     20  C   UNL     1      28.864  -0.730  53.285  1.00  0.00     0.117 A 
ATOM     21  C   UNL     1      28.714   1.414  54.044  1.00  0.00     0.220 A 
ATOM     22  N   UNL     1      29.480   0.345  53.805  1.00  0.00    -0.222 NA
BRANCH  21  23
ATOM     23  N   UNL     1      29.322   2.529  54.585  1.00  0.00    -0.368 N 
ATOM     24  H   UNL     1      28.636   3.081  55.084  1.00  0.00     0.159 HD
ATOM     25  H   UNL     1      30.153   2.253  55.096  1.00  0.00     0.159 HD
ENDBRANCH  21  23
ENDBRANCH  12  17
ENDBRANCH   1   8
BRANCH   5  26
ATOM     26  N   UNL     1      24.875   6.057  51.009  1.00  0.00    -0.276 N 
ATOM     27  H   UNL     1      25.631   6.688  51.288  1.00  0.00     0.180 HD
BRANCH  26  28
ATOM     28  S   UNL     1      23.885   6.811  49.854  1.00  0.00     0.267 S 
ATOM     29  O   UNL     1      23.207   7.895  50.532  1.00  0.00    -0.201 OA
ATOM     30  O   UNL     1      23.123   5.780  49.183  1.00  0.00    -0.201 OA
BRANCH  28  31
ATOM     31  C   UNL     1      25.023   7.528  48.732  1.00  0.00     0.158 A 
ATOM     32  C   UNL     1      24.771   7.577  47.369  1.00  0.00     0.146 A 
ATOM     33  C   UNL     1      26.203   8.064  49.232  1.00  0.00     0.146 A 
ATOM     34  C   UNL     1      25.704   8.153  46.504  1.00  0.00     0.041 A 
ATOM     35  C   UNL     1      27.144   8.640  48.378  1.00  0.00     0.041 A 
ATOM     36  C   UNL     1      26.893   8.686  47.007  1.00  0.00     0.006 A 
ATOM     37  F   UNL     1      23.652   7.076  46.835  1.00  0.00    -0.205 F 
ATOM     38  F   UNL     1      26.482   8.005  50.543  1.00  0.00    -0.205 F 
ENDBRANCH  28  31
ENDBRANCH  26  28
ENDBRANCH   5  26
TORSDOF 7
ENDMDL
MODEL 5
REMARK minimizedAffinity -9.23439789
REMARK minimizedRMSD -1
REMARK SMILES CC(C)(C)c1nc(-c2cccc(NS(=O)(=O)c3c(F)cccc3F)c2F)c(-c2ccnc(N)n2)s1
REMARK SMILES IDX 8 1 9 2 10 3 11 4 12 5 25 6 26 7 7 8 5 9 6 10 35 11 27 12
REMARK SMILES IDX 2 13 1 14 3 15 4 16 28 17 29 18 34 19 30 20 32 21 31 22
REMARK SMILES IDX 33 23 13 26 14 28 15 29 16 30 17 31 18 32 23 33 20 34 22 35
REMARK SMILES IDX 21 36 19 37 24 38
REMARK H PARENT 33 24 33 25 13 27
ROOT
ATOM      1  C   UNL     1      25.096   2.257  51.548  1.00  0.00     0.040 A 
ATOM      2  C   UNL     1      26.179   1.972  50.706  1.00  0.00     0.013 A 
ATOM      3  C   UNL     1      26.681   2.953  49.845  1.00  0.00     0.003 A 
ATOM      4  C   UNL     1      26.118   4.231  49.830  1.00  0.00     0.030 A 
ATOM      5  C   UNL     1      25.065   4.536  50.688  1.00  0.00     0.085 A 
ATOM      6  C   UNL     1      24.554   3.545  51.534  1.00  0.00     0.156 A 
ATOM      7  F   UNL     1      23.548   3.869  52.363  1.00  0.00    -0.204 F 
ENDROOT
BRANCH   1   8
ATOM      8  C   UNL     1      24.599   1.225  52.443  1.00  0.00     0.094 A 
ATOM      9  C   UNL     1      22.964   0.063  53.405  1.00  0.00     0.099 A 
ATOM     10  N   UNL     1      23.232   1.066  52.594  1.00  0.00    -0.240 NA
ATOM     11  S   UNL     1      24.357  -0.706  54.070  1.00  0.00    -0.116 S 
ATOM     12  C   UNL     1      25.383   0.374  53.208  1.00  0.00     0.081 A 
BRANCH   9  13
ATOM     13  C   UNL     1      21.548  -0.385  53.769  1.00  0.00     0.014 C 
ATOM     14  C   UNL     1      20.979   0.519  54.877  1.00  0.00     0.018 C 
ATOM     15  C   UNL     1      20.629  -0.265  52.532  1.00  0.00     0.018 C 
ATOM     16  C   UNL     1      21.525  -1.855  54.230  1.00  0.00     0.018 C 
ENDBRANCH   9  13
BRANCH  12  17
ATOM     17  C   UNL     1      26.831   0.287  53.397  1.00  0.00     0.088 A 
ATOM     18  C   UNL     1      27.540  -0.847  53.060  1.00  0.00     0.050 A 
ATOM     19  N   UNL     1      27.409   1.383  53.927  1.00  0.00    -0.212 NA
ATOM     20  C   UNL     1      28.888  -0.795  53.316  1.00  0.00     0.117 A 
ATOM     21  C   UNL     1      28.728   1.334  54.117  1.00  0.00     0.220 A 
ATOM     22  N   UNL     1      29.499   0.275  53.852  1.00  0.00    -0.222 NA
BRANCH  21  23
ATOM     23  N   UNL     1      29.332   2.442  54.675  1.00  0.00    -0.368 N 
ATOM     24  H   UNL     1      28.645   2.979  55.190  1.00  0.00     0.159 HD
ATOM     25  H   UNL     1      30.168   2.163  55.174  1.00  0.00     0.159 HD
ENDBRANCH  21  23
ENDBRANCH  12  17
ENDBRANCH   1   8
BRANCH   5  26
ATOM     26  N   UNL     1      24.505   5.853  50.743  1.00  0.00    -0.276 N 
ATOM     27  H   UNL     1      25.153   6.618  50.538  1.00  0.00     0.180 HD
BRANCH  26  28
ATOM     28  S   UNL     1      23.018   6.128  49.971  1.00  0.00     0.267 S 
ATOM     29  O   UNL     1      22.072   6.482  51.007  1.00  0.00    -0.201 OA
ATOM     30  O   UNL     1      22.757   5.004  49.098  1.00  0.00    -0.201 OA
BRANCH  28  31
ATOM     31  C   UNL     1      23.304   7.565  49.012  1.00  0.00     0.158 A 
ATOM     32  C   UNL     1      22.499   8.689  49.122  1.00  0.00     0.146 A 
ATOM     33  C   UNL     1      24.373   7.571  48.124  1.00  0.00     0.146 A 
ATOM     34  C   UNL     1      22.755   9.815  48.338  1.00  0.00     0.041 A 
ATOM     35  C   UNL     1      24.638   8.690  47.334  1.00  0.00     0.041 A 
ATOM     36  C   UNL     1      23.826   9.818  47.441  1.00  0.00     0.006 A 
ATOM     37  F   UNL     1      21.457   8.736  49.960  1.00  0.00    -0.205 F 
ATOM     38  F   UNL     1      25.151   6.488  47.979  1.00  0.00    -0.205 F 
ENDBRANCH  28  31
ENDBRANCH  26  28
ENDBRANCH   5  26
TORSDOF 7
ENDMDL
MODEL 6
REMARK minimizedAffinity -9.08087921
REMARK minimizedRMSD -1
REMARK SMILES CC(C)(C)c1nc(-c2cccc(NS(=O)(=O)c3c(F)cccc3F)c2F)c(-c2ccnc(N)n2)s1
REMARK SMILES IDX 8 1 9 2 10 3 11 4 12 5 25 6 26 7 7 8 5 9 6 10 35 11 27 12
REMARK SMILES IDX 2 13 1 14 3 15 4 16 28 17 29 18 34 19 30 20 32 21 31 22
REMARK SMILES IDX 33 23 13 26 14 28 15 29 16 30 17 31 18 32 23 33 20 34 22 35
REMARK SMILES IDX 21 36 19 37 24 38
REMARK H PARENT 33 24 33 25 13 27
ROOT
ATOM      1  C   UNL     1      23.591   4.243  50.714  1.00  0.00     0.040 A 
ATOM      2  C   UNL     1      23.173   4.886  51.886  1.00  0.00     0.013 A 
ATOM      3  C   UNL     1      23.561   4.396  53.138  1.00  0.00     0.003 A 
ATOM      4  C   UNL     1      24.385   3.272  53.228  1.00  0.00     0.030 A 
ATOM      5  C   UNL     1      24.835   2.646  52.069  1.00  0.00     0.085 A 
ATOM      6  C   UNL     1      24.428   3.129  50.820  1.00  0.00     0.156 A 
ATOM      7  F   UNL     1      24.889   2.517  49.717  1.00  0.00    -0.204 F 
ENDROOT
BRANCH   1   8
ATOM      8  C   UNL     1      23.184   4.777  49.424  1.00  0.00     0.094 A 
ATOM      9  C   UNL     1      21.932   4.764  47.586  1.00  0.00     0.099 A 
ATOM     10  N   UNL     1      22.202   4.119  48.703  1.00  0.00    -0.240 NA
ATOM     11  S   UNL     1      22.892   6.172  47.326  1.00  0.00    -0.116 S 
ATOM     12  C   UNL     1      23.718   5.901  48.811  1.00  0.00     0.081 A 
BRANCH   9  13
ATOM     13  C   UNL     1      20.882   4.309  46.572  1.00  0.00     0.014 C 
ATOM     14  C   UNL     1      19.942   5.477  46.226  1.00  0.00     0.018 C 
ATOM     15  C   UNL     1      21.578   3.851  45.270  1.00  0.00     0.018 C 
ATOM     16  C   UNL     1      20.061   3.120  47.108  1.00  0.00     0.018 C 
ENDBRANCH   9  13
BRANCH  12  17
ATOM     17  C   UNL     1      24.809   6.797  49.196  1.00  0.00     0.088 A 
ATOM     18  C   UNL     1      24.578   7.968  49.885  1.00  0.00     0.050 A 
ATOM     19  N   UNL     1      26.040   6.398  48.820  1.00  0.00    -0.212 NA
ATOM     20  C   UNL     1      25.693   8.721  50.156  1.00  0.00     0.117 A 
ATOM     21  C   UNL     1      27.056   7.196  49.149  1.00  0.00     0.220 A 
ATOM     22  N   UNL     1      26.935   8.362  49.790  1.00  0.00    -0.222 NA
BRANCH  21  23
ATOM     23  N   UNL     1      28.321   6.809  48.756  1.00  0.00    -0.368 N 
ATOM     24  H   UNL     1      28.254   6.175  47.970  1.00  0.00     0.159 HD
ATOM     25  H   UNL     1      28.910   7.625  48.642  1.00  0.00     0.159 HD
ENDBRANCH  21  23
ENDBRANCH  12  17
ENDBRANCH   1   8
BRANCH   5  26
ATOM     26  N   UNL     1      25.730   1.530  52.124  1.00  0.00    -0.276 N 
ATOM     27  H   UNL     1      25.955   1.099  51.224  1.00  0.00     0.180 HD
BRANCH  26  28
ATOM     28  S   UNL     1      27.134   1.670  53.070  1.00  0.00     0.267 S 
ATOM     29  O   UNL     1      26.700   1.988  54.413  1.00  0.00    -0.201 OA
ATOM     30  O   UNL     1      28.052   2.544  52.373  1.00  0.00    -0.201 OA
BRANCH  28  31
ATOM     31  C   UNL     1      27.780   0.042  53.102  1.00  0.00     0.158 A 
ATOM     32  C   UNL     1      27.016  -1.054  52.730  1.00  0.00     0.146 A 
ATOM     33  C   UNL     1      29.096  -0.145  53.509  1.00  0.00     0.146 A 
ATOM     34  C   UNL     1      27.563  -2.338  52.773  1.00  0.00     0.041 A 
ATOM     35  C   UNL     1      29.653  -1.422  53.557  1.00  0.00     0.041 A 
ATOM     36  C   UNL     1      28.884  -2.524  53.187  1.00  0.00     0.006 A 
ATOM     37  F   UNL     1      25.744  -0.931  52.332  1.00  0.00    -0.205 F 
ATOM     38  F   UNL     1      29.847   0.896  53.899  1.00  0.00    -0.205 F 
ENDBRANCH  28  31
ENDBRANCH  26  28
ENDBRANCH   5  26
TORSDOF 7
ENDMDL
MODEL 7
REMARK minimizedAffinity -9.03547955
REMARK minimizedRMSD -1
REMARK SMILES CC(C)(C)c1nc(-c2cccc(NS(=O)(=O)c3c(F)cccc3F)c2F)c(-c2ccnc(N)n2)s1
REMARK SMILES IDX 8 1 9 2 10 3 11 4 12 5 25 6 26 7 7 8 5 9 6 10 35 11 27 12
REMARK SMILES IDX 2 13 1 14 3 15 4 16 28 17 29 18 34 19 30 20 32 21 31 22
REMARK SMILES IDX 33 23 13 26 14 28 15 29 16 30 17 31 18 32 23 33 20 34 22 35
REMARK SMILES IDX 21 36 19 37 24 38
REMARK H PARENT 33 24 33 25 13 27
ROOT
ATOM      1  C   UNL     1      25.039   3.356  50.638  1.00  0.00     0.040 A 
ATOM      2  C   UNL     1      26.078   2.876  49.829  1.00  0.00     0.013 A 
ATOM      3  C   UNL     1      26.880   3.765  49.106  1.00  0.00     0.003 A 
ATOM      4  C   UNL     1      26.663   5.142  49.200  1.00  0.00     0.030 A 
ATOM      5  C   UNL     1      25.656   5.632  50.027  1.00  0.00     0.085 A 
ATOM      6  C   UNL     1      24.845   4.737  50.733  1.00  0.00     0.156 A 
ATOM      7  F   UNL     1      23.891   5.235  51.537  1.00  0.00    -0.204 F 
ENDROOT
BRANCH   1   8
ATOM      8  C   UNL     1      24.227   2.413  51.388  1.00  0.00     0.094 A 
ATOM      9  C   UNL     1      22.276   1.556  52.028  1.00  0.00     0.099 A 
ATOM     10  N   UNL     1      22.847   2.512  51.324  1.00  0.00    -0.240 NA
ATOM     11  S   UNL     1      23.382   0.518  52.848  1.00  0.00    -0.116 S 
ATOM     12  C   UNL     1      24.711   1.408  52.212  1.00  0.00     0.081 A 
BRANCH   9  13
ATOM     13  C   UNL     1      20.763   1.376  52.150  1.00  0.00     0.014 C 
ATOM     14  C   UNL     1      20.239   0.518  50.984  1.00  0.00     0.018 C 
ATOM     15  C   UNL     1      20.429   0.645  53.471  1.00  0.00     0.018 C 
ATOM     16  C   UNL     1      20.035   2.733  52.168  1.00  0.00     0.018 C 
ENDBRANCH   9  13
BRANCH  12  17
ATOM     17  C   UNL     1      26.071   1.041  52.609  1.00  0.00     0.088 A 
ATOM     18  C   UNL     1      26.591  -0.209  52.349  1.00  0.00     0.050 A 
ATOM     19  N   UNL     1      26.762   2.006  53.248  1.00  0.00    -0.212 NA
ATOM     20  C   UNL     1      27.870  -0.419  52.802  1.00  0.00     0.117 A 
ATOM     21  C   UNL     1      28.004   1.701  53.630  1.00  0.00     0.220 A 
ATOM     22  N   UNL     1      28.588   0.513  53.452  1.00  0.00    -0.222 NA
BRANCH  21  23
ATOM     23  N   UNL     1      28.718   2.672  54.301  1.00  0.00    -0.368 N 
ATOM     24  H   UNL     1      28.079   3.334  54.723  1.00  0.00     0.159 HD
ATOM     25  H   UNL     1      29.401   2.237  54.909  1.00  0.00     0.159 HD
ENDBRANCH  21  23
ENDBRANCH  12  17
ENDBRANCH   1   8
BRANCH   5  26
ATOM     26  N   UNL     1      25.447   7.039  50.193  1.00  0.00    -0.276 N 
ATOM     27  H   UNL     1      26.031   7.493  50.899  1.00  0.00     0.180 HD
BRANCH  26  28
ATOM     28  S   UNL     1      25.356   8.009  48.802  1.00  0.00     0.267 S 
ATOM     29  O   UNL     1      24.638   9.207  49.178  1.00  0.00    -0.201 OA
ATOM     30  O   UNL     1      24.878   7.182  47.715  1.00  0.00    -0.201 OA
BRANCH  28  31
ATOM     31  C   UNL     1      27.020   8.469  48.504  1.00  0.00     0.158 A 
ATOM     32  C   UNL     1      27.830   8.969  49.512  1.00  0.00     0.146 A 
ATOM     33  C   UNL     1      27.533   8.321  47.221  1.00  0.00     0.146 A 
ATOM     34  C   UNL     1      29.151   9.330  49.237  1.00  0.00     0.041 A 
ATOM     35  C   UNL     1      28.849   8.679  46.933  1.00  0.00     0.041 A 
ATOM     36  C   UNL     1      29.663   9.186  47.946  1.00  0.00     0.006 A 
ATOM     37  F   UNL     1      27.387   9.133  50.764  1.00  0.00    -0.205 F 
ATOM     38  F   UNL     1      26.762   7.864  46.223  1.00  0.00    -0.205 F 
ENDBRANCH  28  31
ENDBRANCH  26  28
ENDBRANCH   5  26
TORSDOF 7
ENDMDL
MODEL 8
REMARK minimizedAffinity -9.01210022
REMARK minimizedRMSD -1
REMARK SMILES CC(C)(C)c1nc(-c2cccc(NS(=O)(=O)c3c(F)cccc3F)c2F)c(-c2ccnc(N)n2)s1
REMARK SMILES IDX 8 1 9 2 10 3 11 4 12 5 25 6 26 7 7 8 5 9 6 10 35 11 27 12
REMARK SMILES IDX 2 13 1 14 3 15 4 16 28 17 29 18 34 19 30 20 32 21 31 22
REMARK SMILES IDX 33 23 13 26 14 28 15 29 16 30 17 31 18 32 23 33 20 34 22 35
REMARK SMILES IDX 21 36 19 37 24 38
REMARK H PARENT 33 24 33 25 13 27
ROOT
ATOM      1  C   UNL     1      24.668   4.711  50.651  1.00  0.00     0.040 A 
ATOM      2  C   UNL     1      23.656   5.024  51.569  1.00  0.00     0.013 A 
ATOM      3  C   UNL     1      23.364   4.152  52.622  1.00  0.00     0.003 A 
ATOM      4  C   UNL     1      24.091   2.970  52.779  1.00  0.00     0.030 A 
ATOM      5  C   UNL     1      25.121   2.666  51.893  1.00  0.00     0.085 A 
ATOM      6  C   UNL     1      25.397   3.533  50.830  1.00  0.00     0.156 A 
ATOM      7  F   UNL     1      26.407   3.225  49.999  1.00  0.00    -0.204 F 
ENDROOT
BRANCH   1   8
ATOM      8  C   UNL     1      24.962   5.639  49.571  1.00  0.00     0.094 A 
ATOM      9  C   UNL     1      26.344   6.910  48.379  1.00  0.00     0.099 A 
ATOM     10  N   UNL     1      26.252   6.120  49.429  1.00  0.00    -0.240 NA
ATOM     11  S   UNL     1      24.857   7.157  47.541  1.00  0.00    -0.116 S 
ATOM     12  C   UNL     1      24.042   6.130  48.656  1.00  0.00     0.081 A 
BRANCH   9  13
ATOM     13  C   UNL     1      27.639   7.591  47.935  1.00  0.00     0.014 C 
ATOM     14  C   UNL     1      28.067   8.640  48.977  1.00  0.00     0.018 C 
ATOM     15  C   UNL     1      28.768   6.542  47.820  1.00  0.00     0.018 C 
ATOM     16  C   UNL     1      27.479   8.260  46.556  1.00  0.00     0.018 C 
ENDBRANCH   9  13
BRANCH  12  17
ATOM     17  C   UNL     1      22.597   5.943  48.528  1.00  0.00     0.088 A 
ATOM     18  C   UNL     1      21.697   6.811  49.108  1.00  0.00     0.050 A 
ATOM     19  N   UNL     1      22.219   4.863  47.815  1.00  0.00    -0.212 NA
ATOM     20  C   UNL     1      20.373   6.495  48.925  1.00  0.00     0.117 A 
ATOM     21  C   UNL     1      20.907   4.659  47.684  1.00  0.00     0.220 A 
ATOM     22  N   UNL     1      19.957   5.424  48.230  1.00  0.00    -0.222 NA
BRANCH  21  23
ATOM     23  N   UNL     1      20.504   3.548  46.972  1.00  0.00    -0.368 N 
ATOM     24  H   UNL     1      21.248   2.861  46.966  1.00  0.00     0.159 HD
ATOM     25  H   UNL     1      19.595   3.242  47.297  1.00  0.00     0.159 HD
ENDBRANCH  21  23
ENDBRANCH  12  17
ENDBRANCH   1   8
BRANCH   5  26
ATOM     26  N   UNL     1      25.926   1.494  52.061  1.00  0.00    -0.276 N 
ATOM     27  H   UNL     1      26.227   1.037  51.196  1.00  0.00     0.180 HD
BRANCH  26  28
ATOM     28  S   UNL     1      27.215   1.553  53.166  1.00  0.00     0.267 S 
ATOM     29  O   UNL     1      26.631   1.775  54.471  1.00  0.00    -0.201 OA
ATOM     30  O   UNL     1      28.204   2.471  52.643  1.00  0.00    -0.201 OA
BRANCH  28  31
ATOM     31  C   UNL     1      27.855  -0.077  53.150  1.00  0.00     0.158 A 
ATOM     32  C   UNL     1      27.068  -1.167  52.811  1.00  0.00     0.146 A 
ATOM     33  C   UNL     1      29.190  -0.271  53.482  1.00  0.00     0.146 A 
ATOM     34  C   UNL     1      27.611  -2.453  52.813  1.00  0.00     0.041 A 
ATOM     35  C   UNL     1      29.744  -1.551  53.490  1.00  0.00     0.041 A 
ATOM     36  C   UNL     1      28.951  -2.648  53.153  1.00  0.00     0.006 A 
ATOM     37  F   UNL     1      25.777  -1.036  52.484  1.00  0.00    -0.205 F 
ATOM     38  F   UNL     1      29.966   0.763  53.839  1.00  0.00    -0.205 F 
ENDBRANCH  28  31
ENDBRANCH  26  28
ENDBRANCH   5  26
TORSDOF 7
ENDMDL
MODEL 9
REMARK minimizedAffinity -8.90158653
REMARK minimizedRMSD -1
REMARK SMILES CC(C)(C)c1nc(-c2cccc(NS(=O)(=O)c3c(F)cccc3F)c2F)c(-c2ccnc(N)n2)s1
REMARK SMILES IDX 8 1 9 2 10 3 11 4 12 5 25 6 26 7 7 8 5 9 6 10 35 11 27 12
REMARK SMILES IDX 2 13 1 14 3 15 4 16 28 17 29 18 34 19 30 20 32 21 31 22
REMARK SMILES IDX 33 23 13 26 14 28 15 29 16 30 17 31 18 32 23 33 20 34 22 35
REMARK SMILES IDX 21 36 19 37 24 38
REMARK H PARENT 33 24 33 25 13 27
ROOT
ATOM      1  C   UNL     1      24.569   3.263  51.944  1.00  0.00     0.040 A 
ATOM      2  C   UNL     1      23.498   3.931  52.552  1.00  0.00     0.013 A 
ATOM      3  C   UNL     1      23.034   5.143  52.030  1.00  0.00     0.003 A 
ATOM      4  C   UNL     1      23.623   5.688  50.887  1.00  0.00     0.030 A 
ATOM      5  C   UNL     1      24.665   5.015  50.254  1.00  0.00     0.085 A 
ATOM      6  C   UNL     1      25.138   3.812  50.791  1.00  0.00     0.156 A 
ATOM      7  F   UNL     1      26.133   3.174  50.153  1.00  0.00    -0.204 F 
ENDROOT
BRANCH   1   8
ATOM      8  C   UNL     1      25.026   1.998  52.497  1.00  0.00     0.094 A 
ATOM      9  C   UNL     1      26.591   0.661  53.340  1.00  0.00     0.099 A 
ATOM     10  N   UNL     1      26.366   1.847  52.813  1.00  0.00    -0.240 NA
ATOM     11  S   UNL     1      25.200  -0.354  53.430  1.00  0.00    -0.116 S 
ATOM     12  C   UNL     1      24.234   0.882  52.722  1.00  0.00     0.081 A 
BRANCH   9  13
ATOM     13  C   UNL     1      27.965   0.184  53.812  1.00  0.00     0.014 C 
ATOM     14  C   UNL     1      28.311  -1.162  53.151  1.00  0.00     0.018 C 
ATOM     15  C   UNL     1      29.043   1.212  53.402  1.00  0.00     0.018 C 
ATOM     16  C   UNL     1      28.013   0.041  55.346  1.00  0.00     0.018 C 
ENDBRANCH   9  13
BRANCH  12  17
ATOM     17  C   UNL     1      22.823   0.614  52.442  1.00  0.00     0.088 A 
ATOM     18  C   UNL     1      22.284   0.799  51.187  1.00  0.00     0.050 A 
ATOM     19  N   UNL     1      22.100   0.186  53.496  1.00  0.00    -0.212 NA
ATOM     20  C   UNL     1      20.942   0.531  51.079  1.00  0.00     0.117 A 
ATOM     21  C   UNL     1      20.808  -0.062  53.276  1.00  0.00     0.220 A 
ATOM     22  N   UNL     1      20.185   0.112  52.107  1.00  0.00    -0.222 NA
BRANCH  21  23
ATOM     23  N   UNL     1      20.050  -0.485  54.349  1.00  0.00    -0.368 N 
ATOM     24  H   UNL     1      20.494  -0.196  55.212  1.00  0.00     0.159 HD
ATOM     25  H   UNL     1      19.083  -0.215  54.214  1.00  0.00     0.159 HD
ENDBRANCH  21  23
ENDBRANCH  12  17
ENDBRANCH   1   8
BRANCH   5  26
ATOM     26  N   UNL     1      25.250   5.514  49.047  1.00  0.00    -0.276 N 
ATOM     27  H   UNL     1      24.715   5.342  48.192  1.00  0.00     0.180 HD
BRANCH  26  28
ATOM     28  S   UNL     1      25.859   7.099  49.042  1.00  0.00     0.267 S 
ATOM     29  O   UNL     1      25.806   7.568  50.410  1.00  0.00    -0.201 OA
ATOM     30  O   UNL     1      25.183   7.831  47.993  1.00  0.00    -0.201 OA
BRANCH  28  31
ATOM     31  C   UNL     1      27.549   6.897  48.626  1.00  0.00     0.158 A 
ATOM     32  C   UNL     1      28.085   5.651  48.338  1.00  0.00     0.146 A 
ATOM     33  C   UNL     1      28.363   8.022  48.581  1.00  0.00     0.146 A 
ATOM     34  C   UNL     1      29.438   5.528  48.014  1.00  0.00     0.041 A 
ATOM     35  C   UNL     1      29.716   7.912  48.261  1.00  0.00     0.041 A 
ATOM     36  C   UNL     1      30.256   6.658  47.975  1.00  0.00     0.006 A 
ATOM     37  F   UNL     1      27.346   4.536  48.367  1.00  0.00    -0.205 F 
ATOM     38  F   UNL     1      27.875   9.235  48.882  1.00  0.00    -0.205 F 
ENDBRANCH  28  31
ENDBRANCH  26  28
ENDBRANCH   5  26
TORSDOF 7
ENDMDL
MODEL 10
REMARK minimizedAffinity -8.87175941
REMARK minimizedRMSD -1
REMARK SMILES CC(C)(C)c1nc(-c2cccc(NS(=O)(=O)c3c(F)cccc3F)c2F)c(-c2ccnc(N)n2)s1
REMARK SMILES IDX 8 1 9 2 10 3 11 4 12 5 25 6 26 7 7 8 5 9 6 10 35 11 27 12
REMARK SMILES IDX 2 13 1 14 3 15 4 16 28 17 29 18 34 19 30 20 32 21 31 22
REMARK SMILES IDX 33 23 13 26 14 28 15 29 16 30 17 31 18 32 23 33 20 34 22 35
REMARK SMILES IDX 21 36 19 37 24 38
REMARK H PARENT 33 24 33 25 13 27
ROOT
ATOM      1  C   UNL     1      21.442   2.217  49.962  1.00  0.00     0.040 A 
ATOM      2  C   UNL     1      22.002   1.647  48.811  1.00  0.00     0.013 A 
ATOM      3  C   UNL     1      22.762   2.428  47.934  1.00  0.00     0.003 A 
ATOM      4  C   UNL     1      22.984   3.779  48.209  1.00  0.00     0.030 A 
ATOM      5  C   UNL     1      22.462   4.347  49.367  1.00  0.00     0.085 A 
ATOM      6  C   UNL     1      21.687   3.566  50.232  1.00  0.00     0.156 A 
ATOM      7  F   UNL     1      21.208   4.134  51.351  1.00  0.00    -0.204 F 
ENDROOT
BRANCH   1   8
ATOM      8  C   UNL     1      20.666   1.382  50.865  1.00  0.00     0.094 A 
ATOM      9  C   UNL     1      18.770   0.439  51.545  1.00  0.00     0.099 A 
ATOM     10  N   UNL     1      19.301   1.263  50.665  1.00  0.00    -0.240 NA
ATOM     11  S   UNL     1      19.888  -0.192  52.695  1.00  0.00    -0.116 S 
ATOM     12  C   UNL     1      21.167   0.693  51.959  1.00  0.00     0.081 A 
BRANCH   9  13
ATOM     13  C   UNL     1      17.284   0.078  51.586  1.00  0.00     0.014 C 
ATOM     14  C   UNL     1      16.446   1.334  51.883  1.00  0.00     0.018 C 
ATOM     15  C   UNL     1      16.844  -0.480  50.214  1.00  0.00     0.018 C 
ATOM     16  C   UNL     1      16.998  -1.003  52.646  1.00  0.00     0.018 C 
ENDBRANCH   9  13
BRANCH  12  17
ATOM     17  C   UNL     1      22.505   0.636  52.547  1.00  0.00     0.088 A 
ATOM     18  C   UNL     1      23.098  -0.560  52.890  1.00  0.00     0.050 A 
ATOM     19  N   UNL     1      23.102   1.831  52.734  1.00  0.00    -0.212 NA
ATOM     20  C   UNL     1      24.345  -0.458  53.456  1.00  0.00     0.117 A 
ATOM     21  C   UNL     1      24.321   1.815  53.274  1.00  0.00     0.220 A 
ATOM     22  N   UNL     1      24.969   0.713  53.667  1.00  0.00    -0.222 NA
BRANCH  21  23
ATOM     23  N   UNL     1      24.938   3.030  53.487  1.00  0.00    -0.368 N 
ATOM     24  H   UNL     1      24.240   3.761  53.542  1.00  0.00     0.159 HD
ATOM     25  H   UNL     1      25.589   2.955  54.260  1.00  0.00     0.159 HD
ENDBRANCH  21  23
ENDBRANCH  12  17
ENDBRANCH   1   8
BRANCH   5  26
ATOM     26  N   UNL     1      22.722   5.713  49.711  1.00  0.00    -0.276 N 
ATOM     27  H   UNL     1      21.899   6.278  49.933  1.00  0.00     0.180 HD
BRANCH  26  28
ATOM     28  S   UNL     1      23.969   6.041  50.816  1.00  0.00     0.267 S 
ATOM     29  O   UNL     1      23.910   5.007  51.826  1.00  0.00    -0.201 OA
ATOM     30  O   UNL     1      23.872   7.435  51.192  1.00  0.00    -0.201 OA
BRANCH  28  31
ATOM     31  C   UNL     1      25.431   5.781  49.887  1.00  0.00     0.158 A 
ATOM     32  C   UNL     1      26.019   4.530  49.788  1.00  0.00     0.146 A 
ATOM     33  C   UNL     1      26.005   6.864  49.232  1.00  0.00     0.146 A 
ATOM     34  C   UNL     1      27.187   4.361  49.041  1.00  0.00     0.041 A 
ATOM     35  C   UNL     1      27.173   6.709  48.485  1.00  0.00     0.041 A 
ATOM     36  C   UNL     1      27.767   5.451  48.389  1.00  0.00     0.006 A 
ATOM     37  F   UNL     1      25.509   3.454  50.398  1.00  0.00    -0.205 F 
ATOM     38  F   UNL     1      25.470   8.090  49.334  1.00  0.00    -0.205 F 
ENDBRANCH  28  31
ENDBRANCH  26  28
ENDBRANCH   5  26
TORSDOF 7
ENDMDL
MODEL 11
REMARK minimizedAffinity -8.77985001
REMARK minimizedRMSD -1
REMARK SMILES CC(C)(C)c1nc(-c2cccc(NS(=O)(=O)c3c(F)cccc3F)c2F)c(-c2ccnc(N)n2)s1
REMARK SMILES IDX 8 1 9 2 10 3 11 4 12 5 25 6 26 7 7 8 5 9 6 10 35 11 27 12
REMARK SMILES IDX 2 13 1 14 3 15 4 16 28 17 29 18 34 19 30 20 32 21 31 22
REMARK SMILES IDX 33 23 13 26 14 28 15 29 16 30 17 31 18 32 23 33 20 34 22 35
REMARK SMILES IDX 21 36 19 37 24 38
REMARK H PARENT 33 24 33 25 13 27
ROOT
ATOM      1  C   UNL     1      23.810   3.971  50.690  1.00  0.00     0.040 A 
ATOM      2  C   UNL     1      22.746   4.030  51.600  1.00  0.00     0.013 A 
ATOM      3  C   UNL     1      22.644   3.090  52.631  1.00  0.00     0.003 A 
ATOM      4  C   UNL     1      23.613   2.094  52.772  1.00  0.00     0.030 A 
ATOM      5  C   UNL     1      24.692   2.047  51.895  1.00  0.00     0.085 A 
ATOM      6  C   UNL     1      24.780   2.979  50.854  1.00  0.00     0.156 A 
ATOM      7  F   UNL     1      25.840   2.922  50.031  1.00  0.00    -0.204 F 
ENDROOT
BRANCH   1   8
ATOM      8  C   UNL     1      23.901   4.967  49.635  1.00  0.00     0.094 A 
ATOM      9  C   UNL     1      24.962   6.571  48.518  1.00  0.00     0.099 A 
ATOM     10  N   UNL     1      25.033   5.759  49.553  1.00  0.00    -0.240 NA
ATOM     11  S   UNL     1      23.494   6.454  47.621  1.00  0.00    -0.116 S 
ATOM     12  C   UNL     1      22.922   5.231  48.688  1.00  0.00     0.081 A 
BRANCH   9  13
ATOM     13  C   UNL     1      26.060   7.565  48.137  1.00  0.00     0.014 C 
ATOM     14  C   UNL     1      27.430   6.863  48.140  1.00  0.00     0.018 C 
ATOM     15  C   UNL     1      25.802   8.108  46.713  1.00  0.00     0.018 C 
ATOM     16  C   UNL     1      26.087   8.768  49.100  1.00  0.00     0.018 C 
ENDBRANCH   9  13
BRANCH  12  17
ATOM     17  C   UNL     1      21.577   4.690  48.497  1.00  0.00     0.088 A 
ATOM     18  C   UNL     1      21.356   3.521  47.800  1.00  0.00     0.050 A 
ATOM     19  N   UNL     1      20.581   5.418  49.042  1.00  0.00    -0.212 NA
ATOM     20  C   UNL     1      20.041   3.147  47.679  1.00  0.00     0.117 A 
ATOM     21  C   UNL     1      19.341   4.955  48.880  1.00  0.00     0.220 A 
ATOM     22  N   UNL     1      19.021   3.851  48.198  1.00  0.00    -0.222 NA
BRANCH  21  23
ATOM     23  N   UNL     1      18.310   5.698  49.416  1.00  0.00    -0.368 N 
ATOM     24  H   UNL     1      18.609   6.659  49.532  1.00  0.00     0.159 HD
ATOM     25  H   UNL     1      17.461   5.540  48.888  1.00  0.00     0.159 HD
ENDBRANCH  21  23
ENDBRANCH  12  17
ENDBRANCH   1   8
BRANCH   5  26
ATOM     26  N   UNL     1      25.735   1.077  52.048  1.00  0.00    -0.276 N 
ATOM     27  H   UNL     1      26.073   0.651  51.182  1.00  0.00     0.180 HD
BRANCH  26  28
ATOM     28  S   UNL     1      27.046   1.458  53.059  1.00  0.00     0.267 S 
ATOM     29  O   UNL     1      26.493   1.733  54.368  1.00  0.00    -0.201 OA
ATOM     30  O   UNL     1      27.852   2.452  52.384  1.00  0.00    -0.201 OA
BRANCH  28  31
ATOM     31  C   UNL     1      27.936  -0.046  53.174  1.00  0.00     0.158 A 
ATOM     32  C   UNL     1      29.255  -0.082  53.598  1.00  0.00     0.146 A 
ATOM     33  C   UNL     1      27.291  -1.229  52.832  1.00  0.00     0.146 A 
ATOM     34  C   UNL     1      29.935  -1.300  53.673  1.00  0.00     0.041 A 
ATOM     35  C   UNL     1      27.960  -2.451  52.901  1.00  0.00     0.041 A 
ATOM     36  C   UNL     1      29.288  -2.487  53.324  1.00  0.00     0.006 A 
ATOM     37  F   UNL     1      29.923   1.026  53.937  1.00  0.00    -0.205 F 
ATOM     38  F   UNL     1      26.024  -1.218  52.393  1.00  0.00    -0.205 F 
ENDBRANCH  28  31
ENDBRANCH  26  28
ENDBRANCH   5  26
TORSDOF 7
ENDMDL
MODEL 12
REMARK minimizedAffinity -8.6582489
REMARK minimizedRMSD -1
REMARK SMILES CC(C)(C)c1nc(-c2cccc(NS(=O)(=O)c3c(F)cccc3F)c2F)c(-c2ccnc(N)n2)s1
REMARK SMILES IDX 8 1 9 2 10 3 11 4 12 5 25 6 26 7 7 8 5 9 6 10 35 11 27 12
REMARK SMILES IDX 2 13 1 14 3 15 4 16 28 17 29 18 34 19 30 20 32 21 31 22
REMARK SMILES IDX 33 23 13 26 14 28 15 29 16 30 17 31 18 32 23 33 20 34 22 35
REMARK SMILES IDX 21 36 19 37 24 38
REMARK H PARENT 33 24 33 25 13 27
ROOT
ATOM      1  C   UNL     1      24.458   4.109  50.275  1.00  0.00     0.040 A 
ATOM      2  C   UNL     1      25.605   3.892  49.500  1.00  0.00     0.013 A 
ATOM      3  C   UNL     1      26.654   3.111  49.993  1.00  0.00     0.003 A 
ATOM      4  C   UNL     1      26.560   2.524  51.257  1.00  0.00     0.030 A 
ATOM      5  C   UNL     1      25.411   2.704  52.022  1.00  0.00     0.085 A 
ATOM      6  C   UNL     1      24.371   3.503  51.531  1.00  0.00     0.156 A 
ATOM      7  F   UNL     1      23.267   3.647  52.282  1.00  0.00    -0.204 F 
ENDROOT
BRANCH   1   8
ATOM      8  C   UNL     1      23.375   4.915  49.736  1.00  0.00     0.094 A 
ATOM      9  C   UNL     1      22.522   6.824  48.976  1.00  0.00     0.099 A 
ATOM     10  N   UNL     1      23.591   6.263  49.502  1.00  0.00    -0.240 NA
ATOM     11  S   UNL     1      21.179   5.759  48.787  1.00  0.00    -0.116 S 
ATOM     12  C   UNL     1      22.096   4.461  49.449  1.00  0.00     0.081 A 
BRANCH   9  13
ATOM     13  C   UNL     1      22.438   8.299  48.584  1.00  0.00     0.014 C 
ATOM     14  C   UNL     1      22.101   8.429  47.088  1.00  0.00     0.018 C 
ATOM     15  C   UNL     1      21.316   8.991  49.391  1.00  0.00     0.018 C 
ATOM     16  C   UNL     1      23.757   9.037  48.888  1.00  0.00     0.018 C 
ENDBRANCH   9  13
BRANCH  12  17
ATOM     17  C   UNL     1      21.458   3.159  49.637  1.00  0.00     0.088 A 
ATOM     18  C   UNL     1      21.799   2.065  48.870  1.00  0.00     0.050 A 
ATOM     19  N   UNL     1      20.516   3.115  50.600  1.00  0.00    -0.212 NA
ATOM     20  C   UNL     1      21.099   0.916  49.142  1.00  0.00     0.117 A 
ATOM     21  C   UNL     1      19.909   1.943  50.793  1.00  0.00     0.220 A 
ATOM     22  N   UNL     1      20.146   0.834  50.086  1.00  0.00    -0.222 NA
BRANCH  21  23
ATOM     23  N   UNL     1      18.930   1.886  51.764  1.00  0.00    -0.368 N 
ATOM     24  H   UNL     1      18.564   2.814  51.932  1.00  0.00     0.159 HD
ATOM     25  H   UNL     1      18.262   1.160  51.536  1.00  0.00     0.159 HD
ENDBRANCH  21  23
ENDBRANCH  12  17
ENDBRANCH   1   8
BRANCH   5  26
ATOM     26  N   UNL     1      25.256   2.068  53.295  1.00  0.00    -0.276 N 
ATOM     27  H   UNL     1      24.416   2.326  53.819  1.00  0.00     0.180 HD
BRANCH  26  28
ATOM     28  S   UNL     1      25.510   0.391  53.393  1.00  0.00     0.267 S 
ATOM     29  O   UNL     1      26.348   0.166  54.551  1.00  0.00    -0.201 OA
ATOM     30  O   UNL     1      25.929  -0.070  52.087  1.00  0.00    -0.201 OA
BRANCH  28  31
ATOM     31  C   UNL     1      23.923  -0.251  53.765  1.00  0.00     0.158 A 
ATOM     32  C   UNL     1      23.681  -0.970  54.926  1.00  0.00     0.146 A 
ATOM     33  C   UNL     1      22.886  -0.024  52.869  1.00  0.00     0.146 A 
ATOM     34  C   UNL     1      22.404  -1.470  55.187  1.00  0.00     0.041 A 
ATOM     35  C   UNL     1      21.607  -0.521  53.117  1.00  0.00     0.041 A 
ATOM     36  C   UNL     1      21.364  -1.247  54.282  1.00  0.00     0.006 A 
ATOM     37  F   UNL     1      24.643  -1.218  55.822  1.00  0.00    -0.205 F 
ATOM     38  F   UNL     1      23.101   0.645  51.726  1.00  0.00    -0.205 F 
ENDBRANCH  28  31
ENDBRANCH  26  28
ENDBRANCH   5  26
TORSDOF 7
ENDMDL
MODEL 13
REMARK minimizedAffinity -8.61403751
REMARK minimizedRMSD -1
REMARK SMILES CC(C)(C)c1nc(-c2cccc(NS(=O)(=O)c3c(F)cccc3F)c2F)c(-c2ccnc(N)n2)s1
REMARK SMILES IDX 8 1 9 2 10 3 11 4 12 5 25 6 26 7 7 8 5 9 6 10 35 11 27 12
REMARK SMILES IDX 2 13 1 14 3 15 4 16 28 17 29 18 34 19 30 20 32 21 31 22
REMARK SMILES IDX 33 23 13 26 14 28 15 29 16 30 17 31 18 32 23 33 20 34 22 35
REMARK SMILES IDX 21 36 19 37 24 38
REMARK H PARENT 33 24 33 25 13 27
ROOT
ATOM      1  C   UNL     1      24.651   4.721  49.664  1.00  0.00     0.040 A 
ATOM      2  C   UNL     1      25.957   4.796  49.161  1.00  0.00     0.013 A 
ATOM      3  C   UNL     1      26.891   3.802  49.472  1.00  0.00     0.003 A 
ATOM      4  C   UNL     1      26.524   2.718  50.272  1.00  0.00     0.030 A 
ATOM      5  C   UNL     1      25.221   2.616  50.748  1.00  0.00     0.085 A 
ATOM      6  C   UNL     1      24.294   3.622  50.450  1.00  0.00     0.156 A 
ATOM      7  F   UNL     1      23.039   3.492  50.908  1.00  0.00    -0.204 F 
ENDROOT
BRANCH   1   8
ATOM      8  C   UNL     1      23.694   5.760  49.318  1.00  0.00     0.094 A 
ATOM      9  C   UNL     1      21.626   6.514  48.996  1.00  0.00     0.099 A 
ATOM     10  N   UNL     1      22.345   5.448  49.285  1.00  0.00    -0.240 NA
ATOM     11  S   UNL     1      22.552   7.937  48.695  1.00  0.00    -0.116 S 
ATOM     12  C   UNL     1      24.009   7.067  48.978  1.00  0.00     0.081 A 
BRANCH   9  13
ATOM     13  C   UNL     1      20.100   6.511  48.899  1.00  0.00     0.014 C 
ATOM     14  C   UNL     1      19.515   5.435  49.830  1.00  0.00     0.018 C 
ATOM     15  C   UNL     1      19.546   7.884  49.344  1.00  0.00     0.018 C 
ATOM     16  C   UNL     1      19.630   6.263  47.452  1.00  0.00     0.018 C 
ENDBRANCH   9  13
BRANCH  12  17
ATOM     17  C   UNL     1      25.292   7.749  48.810  1.00  0.00     0.088 A 
ATOM     18  C   UNL     1      25.877   7.903  47.571  1.00  0.00     0.050 A 
ATOM     19  N   UNL     1      25.855   8.203  49.948  1.00  0.00    -0.212 NA
ATOM     20  C   UNL     1      27.092   8.542  47.569  1.00  0.00     0.117 A 
ATOM     21  C   UNL     1      27.029   8.825  49.830  1.00  0.00     0.220 A 
ATOM     22  N   UNL     1      27.690   8.999  48.682  1.00  0.00    -0.222 NA
BRANCH  21  23
ATOM     23  N   UNL     1      27.626   9.280  50.988  1.00  0.00    -0.368 N 
ATOM     24  H   UNL     1      27.271   8.759  51.780  1.00  0.00     0.159 HD
ATOM     25  H   UNL     1      28.631   9.309  50.868  1.00  0.00     0.159 HD
ENDBRANCH  21  23
ENDBRANCH  12  17
ENDBRANCH   1   8
BRANCH   5  26
ATOM     26  N   UNL     1      24.795   1.487  51.519  1.00  0.00    -0.276 N 
ATOM     27  H   UNL     1      25.000   0.571  51.113  1.00  0.00     0.180 HD
BRANCH  26  28
ATOM     28  S   UNL     1      25.135   1.474  53.183  1.00  0.00     0.267 S 
ATOM     29  O   UNL     1      24.201   0.551  53.791  1.00  0.00    -0.201 OA
ATOM     30  O   UNL     1      25.200   2.849  53.633  1.00  0.00    -0.201 OA
BRANCH  28  31
ATOM     31  C   UNL     1      26.725   0.747  53.280  1.00  0.00     0.158 A 
ATOM     32  C   UNL     1      27.848   1.489  53.611  1.00  0.00     0.146 A 
ATOM     33  C   UNL     1      26.853  -0.612  53.020  1.00  0.00     0.146 A 
ATOM     34  C   UNL     1      29.101   0.876  53.674  1.00  0.00     0.041 A 
ATOM     35  C   UNL     1      28.099  -1.236  53.077  1.00  0.00     0.041 A 
ATOM     36  C   UNL     1      29.229  -0.489  53.407  1.00  0.00     0.006 A 
ATOM     37  F   UNL     1      27.782   2.800  53.870  1.00  0.00    -0.205 F 
ATOM     38  F   UNL     1      25.786  -1.347  52.671  1.00  0.00    -0.205 F 
ENDBRANCH  28  31
ENDBRANCH  26  28
ENDBRANCH   5  26
TORSDOF 7
ENDMDL
MODEL 14
REMARK minimizedAffinity -8.54912376
REMARK minimizedRMSD -1
REMARK SMILES CC(C)(C)c1nc(-c2cccc(NS(=O)(=O)c3c(F)cccc3F)c2F)c(-c2ccnc(N)n2)s1
REMARK SMILES IDX 8 1 9 2 10 3 11 4 12 5 25 6 26 7 7 8 5 9 6 10 35 11 27 12
REMARK SMILES IDX 2 13 1 14 3 15 4 16 28 17 29 18 34 19 30 20 32 21 31 22
REMARK SMILES IDX 33 23 13 26 14 28 15 29 16 30 17 31 18 32 23 33 20 34 22 35
REMARK SMILES IDX 21 36 19 37 24 38
REMARK H PARENT 33 24 33 25 13 27
ROOT
ATOM      1  C   UNL     1      23.400   0.534  52.938  1.00  0.00     0.040 A 
ATOM      2  C   UNL     1      22.874  -0.057  54.094  1.00  0.00     0.013 A 
ATOM      3  C   UNL     1      21.534  -0.455  54.137  1.00  0.00     0.003 A 
ATOM      4  C   UNL     1      20.714  -0.283  53.020  1.00  0.00     0.030 A 
ATOM      5  C   UNL     1      21.235   0.271  51.854  1.00  0.00     0.085 A 
ATOM      6  C   UNL     1      22.572   0.685  51.823  1.00  0.00     0.156 A 
ATOM      7  F   UNL     1      23.054   1.202  50.681  1.00  0.00    -0.204 F 
ENDROOT
BRANCH   1   8
ATOM      8  C   UNL     1      24.799   0.929  52.913  1.00  0.00     0.094 A 
ATOM      9  C   UNL     1      26.966   0.550  53.248  1.00  0.00     0.099 A 
ATOM     10  N   UNL     1      25.756   0.047  53.386  1.00  0.00    -0.240 NA
ATOM     11  S   UNL     1      27.003   2.143  52.589  1.00  0.00    -0.116 S 
ATOM     12  C   UNL     1      25.285   2.152  52.476  1.00  0.00     0.081 A 
BRANCH   9  13
ATOM     13  C   UNL     1      28.245  -0.180  53.659  1.00  0.00     0.014 C 
ATOM     14  C   UNL     1      28.198  -1.638  53.171  1.00  0.00     0.018 C 
ATOM     15  C   UNL     1      29.469   0.505  53.008  1.00  0.00     0.018 C 
ATOM     16  C   UNL     1      28.446  -0.146  55.186  1.00  0.00     0.018 C 
ENDBRANCH   9  13
BRANCH  12  17
ATOM     17  C   UNL     1      24.608   3.358  52.000  1.00  0.00     0.088 A 
ATOM     18  C   UNL     1      23.608   3.966  52.729  1.00  0.00     0.050 A 
ATOM     19  N   UNL     1      25.026   3.817  50.803  1.00  0.00    -0.212 NA
ATOM     20  C   UNL     1      23.046   5.075  52.146  1.00  0.00     0.117 A 
ATOM     21  C   UNL     1      24.424   4.912  50.337  1.00  0.00     0.220 A 
ATOM     22  N   UNL     1      23.428   5.557  50.952  1.00  0.00    -0.222 NA
BRANCH  21  23
ATOM     23  N   UNL     1      24.829   5.385  49.105  1.00  0.00    -0.368 N 
ATOM     24  H   UNL     1      25.258   4.634  48.578  1.00  0.00     0.159 HD
ATOM     25  H   UNL     1      24.068   5.884  48.662  1.00  0.00     0.159 HD
ENDBRANCH  21  23
ENDBRANCH  12  17
ENDBRANCH   1   8
BRANCH   5  26
ATOM     26  N   UNL     1      20.439   0.405  50.672  1.00  0.00    -0.276 N 
ATOM     27  H   UNL     1      19.812  -0.378  50.469  1.00  0.00     0.180 HD
BRANCH  26  28
ATOM     28  S   UNL     1      19.635   1.877  50.405  1.00  0.00     0.267 S 
ATOM     29  O   UNL     1      19.768   2.649  51.622  1.00  0.00    -0.201 OA
ATOM     30  O   UNL     1      18.325   1.577  49.871  1.00  0.00    -0.201 OA
BRANCH  28  31
ATOM     31  C   UNL     1      20.606   2.667  49.179  1.00  0.00     0.158 A 
ATOM     32  C   UNL     1      21.404   1.945  48.304  1.00  0.00     0.146 A 
ATOM     33  C   UNL     1      20.562   4.053  49.085  1.00  0.00     0.146 A 
ATOM     34  C   UNL     1      22.167   2.609  47.341  1.00  0.00     0.041 A 
ATOM     35  C   UNL     1      21.322   4.727  48.129  1.00  0.00     0.041 A 
ATOM     36  C   UNL     1      22.128   4.002  47.253  1.00  0.00     0.006 A 
ATOM     37  F   UNL     1      21.483   0.611  48.351  1.00  0.00    -0.205 F 
ATOM     38  F   UNL     1      19.819   4.775  49.936  1.00  0.00    -0.205 F 
ENDBRANCH  28  31
ENDBRANCH  26  28
ENDBRANCH   5  26
TORSDOF 7
ENDMDL
MODEL 15
REMARK minimizedAffinity -8.54500103
REMARK minimizedRMSD -1
REMARK SMILES CC(C)(C)c1nc(-c2cccc(NS(=O)(=O)c3c(F)cccc3F)c2F)c(-c2ccnc(N)n2)s1
REMARK SMILES IDX 8 1 9 2 10 3 11 4 12 5 25 6 26 7 7 8 5 9 6 10 35 11 27 12
REMARK SMILES IDX 2 13 1 14 3 15 4 16 28 17 29 18 34 19 30 20 32 21 31 22
REMARK SMILES IDX 33 23 13 26 14 28 15 29 16 30 17 31 18 32 23 33 20 34 22 35
REMARK SMILES IDX 21 36 19 37 24 38
REMARK H PARENT 33 24 33 25 13 27
ROOT
ATOM      1  C   UNL     1      24.840   4.999  49.263  1.00  0.00     0.040 A 
ATOM      2  C   UNL     1      26.113   4.452  49.056  1.00  0.00     0.013 A 
ATOM      3  C   UNL     1      26.620   3.489  49.936  1.00  0.00     0.003 A 
ATOM      4  C   UNL     1      25.852   3.053  51.018  1.00  0.00     0.030 A 
ATOM      5  C   UNL     1      24.572   3.564  51.213  1.00  0.00     0.085 A 
ATOM      6  C   UNL     1      24.077   4.540  50.340  1.00  0.00     0.156 A 
ATOM      7  F   UNL     1      22.834   5.005  50.541  1.00  0.00    -0.204 F 
ENDROOT
BRANCH   1   8
ATOM      8  C   UNL     1      24.330   5.989  48.328  1.00  0.00     0.094 A 
ATOM      9  C   UNL     1      22.780   6.791  46.949  1.00  0.00     0.099 A 
ATOM     10  N   UNL     1      23.100   5.778  47.728  1.00  0.00    -0.240 NA
ATOM     11  S   UNL     1      23.977   8.028  46.861  1.00  0.00    -0.116 S 
ATOM     12  C   UNL     1      24.986   7.148  47.943  1.00  0.00     0.081 A 
BRANCH   9  13
ATOM     13  C   UNL     1      21.476   6.875  46.154  1.00  0.00     0.014 C 
ATOM     14  C   UNL     1      20.532   7.906  46.798  1.00  0.00     0.018 C 
ATOM     15  C   UNL     1      21.776   7.336  44.709  1.00  0.00     0.018 C 
ATOM     16  C   UNL     1      20.777   5.504  46.073  1.00  0.00     0.018 C 
ENDBRANCH   9  13
BRANCH  12  17
ATOM     17  C   UNL     1      26.311   7.675  48.271  1.00  0.00     0.088 A 
ATOM     18  C   UNL     1      27.387   7.513  47.425  1.00  0.00     0.050 A 
ATOM     19  N   UNL     1      26.398   8.315  49.454  1.00  0.00    -0.212 NA
ATOM     20  C   UNL     1      28.573   8.038  47.875  1.00  0.00     0.117 A 
ATOM     21  C   UNL     1      27.594   8.803  49.787  1.00  0.00     0.220 A 
ATOM     22  N   UNL     1      28.703   8.674  49.052  1.00  0.00    -0.222 NA
BRANCH  21  23
ATOM     23  N   UNL     1      27.703   9.445  51.003  1.00  0.00    -0.368 N 
ATOM     24  H   UNL     1      26.961   9.136  51.618  1.00  0.00     0.159 HD
ATOM     25  H   UNL     1      28.652   9.368  51.348  1.00  0.00     0.159 HD
ENDBRANCH  21  23
ENDBRANCH  12  17
ENDBRANCH   1   8
BRANCH   5  26
ATOM     26  N   UNL     1      23.735   3.094  52.275  1.00  0.00    -0.276 N 
ATOM     27  H   UNL     1      23.401   3.809  52.925  1.00  0.00     0.180 HD
BRANCH  26  28
ATOM     28  S   UNL     1      22.475   2.021  51.892  1.00  0.00     0.267 S 
ATOM     29  O   UNL     1      22.815   1.419  50.621  1.00  0.00    -0.201 OA
ATOM     30  O   UNL     1      21.225   2.731  52.053  1.00  0.00    -0.201 OA
BRANCH  28  31
ATOM     31  C   UNL     1      22.605   0.771  53.113  1.00  0.00     0.158 A 
ATOM     32  C   UNL     1      23.798   0.107  53.354  1.00  0.00     0.146 A 
ATOM     33  C   UNL     1      21.477   0.449  53.858  1.00  0.00     0.146 A 
ATOM     34  C   UNL     1      23.863  -0.887  54.332  1.00  0.00     0.041 A 
ATOM     35  C   UNL     1      21.528  -0.544  54.837  1.00  0.00     0.041 A 
ATOM     36  C   UNL     1      22.727  -1.214  55.076  1.00  0.00     0.006 A 
ATOM     37  F   UNL     1      24.913   0.378  52.665  1.00  0.00    -0.205 F 
ATOM     38  F   UNL     1      20.304   1.057  53.626  1.00  0.00    -0.205 F 
ENDBRANCH  28  31
ENDBRANCH  26  28
ENDBRANCH   5  26
TORSDOF 7
ENDMDL
MODEL 16
REMARK minimizedAffinity -8.50862789
REMARK minimizedRMSD -1
REMARK SMILES CC(C)(C)c1nc(-c2cccc(NS(=O)(=O)c3c(F)cccc3F)c2F)c(-c2ccnc(N)n2)s1
REMARK SMILES IDX 8 1 9 2 10 3 11 4 12 5 25 6 26 7 7 8 5 9 6 10 35 11 27 12
REMARK SMILES IDX 2 13 1 14 3 15 4 16 28 17 29 18 34 19 30 20 32 21 31 22
REMARK SMILES IDX 33 23 13 26 14 28 15 29 16 30 17 31 18 32 23 33 20 34 22 35
REMARK SMILES IDX 21 36 19 37 24 38
REMARK H PARENT 33 24 33 25 13 27
ROOT
ATOM      1  C   UNL     1      21.809   2.131  50.034  1.00  0.00     0.040 A 
ATOM      2  C   UNL     1      22.046   1.650  48.740  1.00  0.00     0.013 A 
ATOM      3  C   UNL     1      21.592   2.364  47.626  1.00  0.00     0.003 A 
ATOM      4  C   UNL     1      20.914   3.573  47.796  1.00  0.00     0.030 A 
ATOM      5  C   UNL     1      20.703   4.078  49.076  1.00  0.00     0.085 A 
ATOM      6  C   UNL     1      21.144   3.350  50.187  1.00  0.00     0.156 A 
ATOM      7  F   UNL     1      20.943   3.867  51.410  1.00  0.00    -0.204 F 
ENDROOT
BRANCH   1   8
ATOM      8  C   UNL     1      22.301   1.376  51.175  1.00  0.00     0.094 A 
ATOM      9  C   UNL     1      23.906   0.731  52.574  1.00  0.00     0.099 A 
ATOM     10  N   UNL     1      23.648   1.437  51.492  1.00  0.00    -0.240 NA
ATOM     11  S   UNL     1      22.539  -0.089  53.233  1.00  0.00    -0.116 S 
ATOM     12  C   UNL     1      21.537   0.553  51.989  1.00  0.00     0.081 A 
BRANCH   9  13
ATOM     13  C   UNL     1      25.296   0.604  53.197  1.00  0.00     0.014 C 
ATOM     14  C   UNL     1      25.279  -0.457  54.312  1.00  0.00     0.018 C 
ATOM     15  C   UNL     1      26.311   0.152  52.122  1.00  0.00     0.018 C 
ATOM     16  C   UNL     1      25.783   1.951  53.765  1.00  0.00     0.018 C 
ENDBRANCH   9  13
BRANCH  12  17
ATOM     17  C   UNL     1      20.129   0.159  51.932  1.00  0.00     0.088 A 
ATOM     18  C   UNL     1      19.324   0.491  50.863  1.00  0.00     0.050 A 
ATOM     19  N   UNL     1      19.684  -0.537  52.998  1.00  0.00    -0.212 NA
ATOM     20  C   UNL     1      18.019   0.076  50.959  1.00  0.00     0.117 A 
ATOM     21  C   UNL     1      18.403  -0.906  52.981  1.00  0.00     0.220 A 
ATOM     22  N   UNL     1      17.535  -0.610  52.008  1.00  0.00    -0.222 NA
BRANCH  21  23
ATOM     23  N   UNL     1      17.928  -1.604  54.072  1.00  0.00    -0.368 N 
ATOM     24  H   UNL     1      18.514  -1.418  54.876  1.00  0.00     0.159 HD
ATOM     25  H   UNL     1      16.934  -1.442  54.178  1.00  0.00     0.159 HD
ENDBRANCH  21  23
ENDBRANCH  12  17
ENDBRANCH   1   8
BRANCH   5  26
ATOM     26  N   UNL     1      20.067   5.344  49.283  1.00  0.00    -0.276 N 
ATOM     27  H   UNL     1      19.681   5.498  50.217  1.00  0.00     0.180 HD
BRANCH  26  28
ATOM     28  S   UNL     1      20.866   6.744  48.746  1.00  0.00     0.267 S 
ATOM     29  O   UNL     1      20.330   7.847  49.513  1.00  0.00    -0.201 OA
ATOM     30  O   UNL     1      20.804   6.762  47.300  1.00  0.00    -0.201 OA
BRANCH  28  31
ATOM     31  C   UNL     1      22.522   6.504  49.263  1.00  0.00     0.158 A 
ATOM     32  C   UNL     1      23.537   6.232  48.358  1.00  0.00     0.146 A 
ATOM     33  C   UNL     1      22.817   6.597  50.618  1.00  0.00     0.146 A 
ATOM     34  C   UNL     1      24.845   6.042  48.808  1.00  0.00     0.041 A 
ATOM     35  C   UNL     1      24.119   6.408  51.080  1.00  0.00     0.041 A 
ATOM     36  C   UNL     1      25.139   6.130  50.170  1.00  0.00     0.006 A 
ATOM     37  F   UNL     1      23.308   6.130  47.044  1.00  0.00    -0.205 F 
ATOM     38  F   UNL     1      21.848   6.833  51.516  1.00  0.00    -0.205 F 
ENDBRANCH  28  31
ENDBRANCH  26  28
ENDBRANCH   5  26
TORSDOF 7
ENDMDL
MODEL 17
REMARK minimizedAffinity -8.46256065
REMARK minimizedRMSD -1
REMARK SMILES CC(C)(C)c1nc(-c2cccc(NS(=O)(=O)c3c(F)cccc3F)c2F)c(-c2ccnc(N)n2)s1
REMARK SMILES IDX 8 1 9 2 10 3 11 4 12 5 25 6 26 7 7 8 5 9 6 10 35 11 27 12
REMARK SMILES IDX 2 13 1 14 3 15 4 16 28 17 29 18 34 19 30 20 32 21 31 22
REMARK SMILES IDX 33 23 13 26 14 28 15 29 16 30 17 31 18 32 23 33 20 34 22 35
REMARK SMILES IDX 21 36 19 37 24 38
REMARK H PARENT 33 24 33 25 13 27
ROOT
ATOM      1  C   UNL     1      24.614   5.163  50.433  1.00  0.00     0.040 A 
ATOM      2  C   UNL     1      23.919   5.723  51.513  1.00  0.00     0.013 A 
ATOM      3  C   UNL     1      23.394   4.904  52.517  1.00  0.00     0.003 A 
ATOM      4  C   UNL     1      23.574   3.520  52.461  1.00  0.00     0.030 A 
ATOM      5  C   UNL     1      24.292   2.955  51.411  1.00  0.00     0.085 A 
ATOM      6  C   UNL     1      24.800   3.778  50.398  1.00  0.00     0.156 A 
ATOM      7  F   UNL     1      25.503   3.210  49.405  1.00  0.00    -0.204 F 
ENDROOT
BRANCH   1   8
ATOM      8  C   UNL     1      25.161   6.036  49.407  1.00  0.00     0.094 A 
ATOM      9  C   UNL     1      26.850   6.989  48.319  1.00  0.00     0.099 A 
ATOM     10  N   UNL     1      26.533   6.203  49.327  1.00  0.00    -0.240 NA
ATOM     11  S   UNL     1      25.499   7.612  47.448  1.00  0.00    -0.116 S 
ATOM     12  C   UNL     1      24.420   6.765  48.489  1.00  0.00     0.081 A 
BRANCH   9  13
ATOM     13  C   UNL     1      28.286   7.361  47.948  1.00  0.00     0.014 C 
ATOM     14  C   UNL     1      29.183   6.111  47.993  1.00  0.00     0.018 C 
ATOM     15  C   UNL     1      28.324   7.927  46.509  1.00  0.00     0.018 C 
ATOM     16  C   UNL     1      28.849   8.442  48.891  1.00  0.00     0.018 C 
ENDBRANCH   9  13
BRANCH  12  17
ATOM     17  C   UNL     1      22.978   6.929  48.308  1.00  0.00     0.088 A 
ATOM     18  C   UNL     1      22.246   6.083  47.503  1.00  0.00     0.050 A 
ATOM     19  N   UNL     1      22.429   7.965  48.975  1.00  0.00    -0.212 NA
ATOM     20  C   UNL     1      20.907   6.374  47.408  1.00  0.00     0.117 A 
ATOM     21  C   UNL     1      21.117   8.146  48.826  1.00  0.00     0.220 A 
ATOM     22  N   UNL     1      20.325   7.402  48.048  1.00  0.00    -0.222 NA
BRANCH  21  23
ATOM     23  N   UNL     1      20.544   9.213  49.489  1.00  0.00    -0.368 N 
ATOM     24  H   UNL     1      21.252   9.907  49.691  1.00  0.00     0.159 HD
ATOM     25  H   UNL     1      19.720   9.525  48.989  1.00  0.00     0.159 HD
ENDBRANCH  21  23
ENDBRANCH  12  17
ENDBRANCH   1   8
BRANCH   5  26
ATOM     26  N   UNL     1      24.548   1.547  51.354  1.00  0.00    -0.276 N 
ATOM     27  H   UNL     1      24.696   1.162  50.419  1.00  0.00     0.180 HD
BRANCH  26  28
ATOM     28  S   UNL     1      25.676   0.890  52.440  1.00  0.00     0.267 S 
ATOM     29  O   UNL     1      26.254   2.004  53.161  1.00  0.00    -0.201 OA
ATOM     30  O   UNL     1      26.524  -0.020  51.701  1.00  0.00    -0.201 OA
BRANCH  28  31
ATOM     31  C   UNL     1      24.690  -0.010  53.574  1.00  0.00     0.158 A 
ATOM     32  C   UNL     1      23.346  -0.253  53.339  1.00  0.00     0.146 A 
ATOM     33  C   UNL     1      25.283  -0.493  54.735  1.00  0.00     0.146 A 
ATOM     34  C   UNL     1      22.589  -0.971  54.267  1.00  0.00     0.041 A 
ATOM     35  C   UNL     1      24.538  -1.210  55.671  1.00  0.00     0.041 A 
ATOM     36  C   UNL     1      23.185  -1.451  55.436  1.00  0.00     0.006 A 
ATOM     37  F   UNL     1      22.725   0.190  52.239  1.00  0.00    -0.205 F 
ATOM     38  F   UNL     1      26.575  -0.249  54.998  1.00  0.00    -0.205 F 
ENDBRANCH  28  31
ENDBRANCH  26  28
ENDBRANCH   5  26
TORSDOF 7
ENDMDL
MODEL 18
REMARK minimizedAffinity -8.43112278
REMARK minimizedRMSD -1
REMARK SMILES CC(C)(C)c1nc(-c2cccc(NS(=O)(=O)c3c(F)cccc3F)c2F)c(-c2ccnc(N)n2)s1
REMARK SMILES IDX 8 1 9 2 10 3 11 4 12 5 25 6 26 7 7 8 5 9 6 10 35 11 27 12
REMARK SMILES IDX 2 13 1 14 3 15 4 16 28 17 29 18 34 19 30 20 32 21 31 22
REMARK SMILES IDX 33 23 13 26 14 28 15 29 16 30 17 31 18 32 23 33 20 34 22 35
REMARK SMILES IDX 21 36 19 37 24 38
REMARK H PARENT 33 24 33 25 13 27
ROOT
ATOM      1  C   UNL     1      27.483   7.414  48.863  1.00  0.00     0.040 A 
ATOM      2  C   UNL     1      27.578   8.690  49.434  1.00  0.00     0.013 A 
ATOM      3  C   UNL     1      28.813   9.342  49.507  1.00  0.00     0.003 A 
ATOM      4  C   UNL     1      29.960   8.733  48.994  1.00  0.00     0.030 A 
ATOM      5  C   UNL     1      29.873   7.480  48.394  1.00  0.00     0.085 A 
ATOM      6  C   UNL     1      28.637   6.824  48.340  1.00  0.00     0.156 A 
ATOM      7  F   UNL     1      28.576   5.624  47.741  1.00  0.00    -0.204 F 
ENDROOT
BRANCH   1   8
ATOM      8  C   UNL     1      26.186   6.762  48.787  1.00  0.00     0.094 A 
ATOM      9  C   UNL     1      24.751   5.149  49.324  1.00  0.00     0.099 A 
ATOM     10  N   UNL     1      25.990   5.573  49.469  1.00  0.00    -0.240 NA
ATOM     11  S   UNL     1      23.773   6.142  48.307  1.00  0.00    -0.116 S 
ATOM     12  C   UNL     1      25.098   7.211  48.053  1.00  0.00     0.081 A 
BRANCH   9  13
ATOM     13  C   UNL     1      24.205   3.873  49.965  1.00  0.00     0.014 C 
ATOM     14  C   UNL     1      23.387   3.074  48.935  1.00  0.00     0.018 C 
ATOM     15  C   UNL     1      25.378   2.984  50.438  1.00  0.00     0.018 C 
ATOM     16  C   UNL     1      23.332   4.190  51.194  1.00  0.00     0.018 C 
ENDBRANCH   9  13
BRANCH  12  17
ATOM     17  C   UNL     1      24.934   8.348  47.147  1.00  0.00     0.088 A 
ATOM     18  C   UNL     1      25.323   8.286  45.826  1.00  0.00     0.050 A 
ATOM     19  N   UNL     1      24.389   9.449  47.701  1.00  0.00    -0.212 NA
ATOM     20  C   UNL     1      25.131   9.437  45.102  1.00  0.00     0.117 A 
ATOM     21  C   UNL     1      24.231  10.506  46.904  1.00  0.00     0.220 A 
ATOM     22  N   UNL     1      24.600  10.558  45.620  1.00  0.00    -0.222 NA
BRANCH  21  23
ATOM     23  N   UNL     1      23.690  11.647  47.460  1.00  0.00    -0.368 N 
ATOM     24  H   UNL     1      23.830  11.636  48.462  1.00  0.00     0.159 HD
ATOM     25  H   UNL     1      24.017  12.463  46.957  1.00  0.00     0.159 HD
ENDBRANCH  21  23
ENDBRANCH  12  17
ENDBRANCH   1   8
BRANCH   5  26
ATOM     26  N   UNL     1      31.017   6.854  47.804  1.00  0.00    -0.276 N 
ATOM     27  H   UNL     1      31.447   7.361  47.027  1.00  0.00     0.180 HD
BRANCH  26  28
ATOM     28  S   UNL     1      32.220   6.240  48.834  1.00  0.00     0.267 S 
ATOM     29  O   UNL     1      31.536   5.666  49.973  1.00  0.00    -0.201 OA
ATOM     30  O   UNL     1      33.212   7.276  49.024  1.00  0.00    -0.201 OA
BRANCH  28  31
ATOM     31  C   UNL     1      32.916   4.917  47.922  1.00  0.00     0.158 A 
ATOM     32  C   UNL     1      32.125   3.993  47.257  1.00  0.00     0.146 A 
ATOM     33  C   UNL     1      34.300   4.802  47.866  1.00  0.00     0.146 A 
ATOM     34  C   UNL     1      32.715   2.948  46.543  1.00  0.00     0.041 A 
ATOM     35  C   UNL     1      34.902   3.762  47.158  1.00  0.00     0.041 A 
ATOM     36  C   UNL     1      34.106   2.831  46.492  1.00  0.00     0.006 A 
ATOM     37  F   UNL     1      30.788   4.056  47.278  1.00  0.00    -0.205 F 
ATOM     38  F   UNL     1      35.087   5.667  48.523  1.00  0.00    -0.205 F 
ENDBRANCH  28  31
ENDBRANCH  26  28
ENDBRANCH   5  26
TORSDOF 7
ENDMDL
MODEL 19
REMARK minimizedAffinity -8.40988636
REMARK minimizedRMSD -1
REMARK SMILES CC(C)(C)c1nc(-c2cccc(NS(=O)(=O)c3c(F)cccc3F)c2F)c(-c2ccnc(N)n2)s1
REMARK SMILES IDX 8 1 9 2 10 3 11 4 12 5 25 6 26 7 7 8 5 9 6 10 35 11 27 12
REMARK SMILES IDX 2 13 1 14 3 15 4 16 28 17 29 18 34 19 30 20 32 21 31 22
REMARK SMILES IDX 33 23 13 26 14 28 15 29 16 30 17 31 18 32 23 33 20 34 22 35
REMARK SMILES IDX 21 36 19 37 24 38
REMARK H PARENT 33 24 33 25 13 27
ROOT
ATOM      1  C   UNL     1      22.575   1.542  51.593  1.00  0.00     0.040 A 
ATOM      2  C   UNL     1      21.724   1.319  52.683  1.00  0.00     0.013 A 
ATOM      3  C   UNL     1      20.339   1.251  52.497  1.00  0.00     0.003 A 
ATOM      4  C   UNL     1      19.795   1.387  51.218  1.00  0.00     0.030 A 
ATOM      5  C   UNL     1      20.632   1.574  50.123  1.00  0.00     0.085 A 
ATOM      6  C   UNL     1      22.016   1.660  50.317  1.00  0.00     0.156 A 
ATOM      7  F   UNL     1      22.804   1.825  49.242  1.00  0.00    -0.204 F 
ENDROOT
BRANCH   1   8
ATOM      8  C   UNL     1      24.011   1.597  51.810  1.00  0.00     0.094 A 
ATOM      9  C   UNL     1      25.926   0.769  52.581  1.00  0.00     0.099 A 
ATOM     10  N   UNL     1      24.624   0.578  52.519  1.00  0.00    -0.240 NA
ATOM     11  S   UNL     1      26.469   2.223  51.830  1.00  0.00    -0.116 S 
ATOM     12  C   UNL     1      24.853   2.616  51.388  1.00  0.00     0.081 A 
BRANCH   9  13
ATOM     13  C   UNL     1      26.895  -0.184  53.281  1.00  0.00     0.014 C 
ATOM     14  C   UNL     1      26.514  -0.326  54.766  1.00  0.00     0.018 C 
ATOM     15  C   UNL     1      26.813  -1.584  52.630  1.00  0.00     0.018 C 
ATOM     16  C   UNL     1      28.351   0.305  53.160  1.00  0.00     0.018 C 
ENDBRANCH   9  13
BRANCH  12  17
ATOM     17  C   UNL     1      24.587   3.882  50.706  1.00  0.00     0.088 A 
ATOM     18  C   UNL     1      25.150   4.181  49.483  1.00  0.00     0.050 A 
ATOM     19  N   UNL     1      23.766   4.727  51.361  1.00  0.00    -0.212 NA
ATOM     20  C   UNL     1      24.831   5.416  48.975  1.00  0.00     0.117 A 
ATOM     21  C   UNL     1      23.508   5.893  50.769  1.00  0.00     0.220 A 
ATOM     22  N   UNL     1      24.025   6.289  49.602  1.00  0.00    -0.222 NA
BRANCH  21  23
ATOM     23  N   UNL     1      22.683   6.776  51.436  1.00  0.00    -0.368 N 
ATOM     24  H   UNL     1      22.690   6.566  52.426  1.00  0.00     0.159 HD
ATOM     25  H   UNL     1      22.905   7.726  51.164  1.00  0.00     0.159 HD
ENDBRANCH  21  23
ENDBRANCH  12  17
ENDBRANCH   1   8
BRANCH   5  26
ATOM     26  N   UNL     1      20.112   1.656  48.791  1.00  0.00    -0.276 N 
ATOM     27  H   UNL     1      19.617   0.826  48.458  1.00  0.00     0.180 HD
BRANCH  26  28
ATOM     28  S   UNL     1      19.264   3.058  48.343  1.00  0.00     0.267 S 
ATOM     29  O   UNL     1      19.735   4.121  49.205  1.00  0.00    -0.201 OA
ATOM     30  O   UNL     1      17.856   2.727  48.294  1.00  0.00    -0.201 OA
BRANCH  28  31
ATOM     31  C   UNL     1      19.846   3.400  46.727  1.00  0.00     0.158 A 
ATOM     32  C   UNL     1      19.016   3.318  45.620  1.00  0.00     0.146 A 
ATOM     33  C   UNL     1      21.176   3.768  46.562  1.00  0.00     0.146 A 
ATOM     34  C   UNL     1      19.516   3.593  44.346  1.00  0.00     0.041 A 
ATOM     35  C   UNL     1      21.689   4.044  45.295  1.00  0.00     0.041 A 
ATOM     36  C   UNL     1      20.855   3.957  44.181  1.00  0.00     0.006 A 
ATOM     37  F   UNL     1      17.729   2.967  45.722  1.00  0.00    -0.205 F 
ATOM     38  F   UNL     1      22.007   3.829  47.614  1.00  0.00    -0.205 F 
ENDBRANCH  28  31
ENDBRANCH  26  28
ENDBRANCH   5  26
TORSDOF 7
ENDMDL
MODEL 20
REMARK minimizedAffinity -8.40001583
REMARK minimizedRMSD -1
REMARK SMILES CC(C)(C)c1nc(-c2cccc(NS(=O)(=O)c3c(F)cccc3F)c2F)c(-c2ccnc(N)n2)s1
REMARK SMILES IDX 8 1 9 2 10 3 11 4 12 5 25 6 26 7 7 8 5 9 6 10 35 11 27 12
REMARK SMILES IDX 2 13 1 14 3 15 4 16 28 17 29 18 34 19 30 20 32 21 31 22
REMARK SMILES IDX 33 23 13 26 14 28 15 29 16 30 17 31 18 32 23 33 20 34 22 35
REMARK SMILES IDX 21 36 19 37 24 38
REMARK H PARENT 33 24 33 25 13 27
ROOT
ATOM      1  C   UNL     1      24.258   3.386  51.850  1.00  0.00     0.040 A 
ATOM      2  C   UNL     1      23.228   4.064  52.516  1.00  0.00     0.013 A 
ATOM      3  C   UNL     1      22.745   5.279  52.019  1.00  0.00     0.003 A 
ATOM      4  C   UNL     1      23.273   5.816  50.843  1.00  0.00     0.030 A 
ATOM      5  C   UNL     1      24.271   5.134  50.154  1.00  0.00     0.085 A 
ATOM      6  C   UNL     1      24.764   3.928  50.666  1.00  0.00     0.156 A 
ATOM      7  F   UNL     1      25.717   3.281  49.975  1.00  0.00    -0.204 F 
ENDROOT
BRANCH   1   8
ATOM      8  C   UNL     1      24.735   2.119  52.380  1.00  0.00     0.094 A 
ATOM      9  C   UNL     1      26.317   0.796  53.214  1.00  0.00     0.099 A 
ATOM     10  N   UNL     1      26.073   1.990  52.713  1.00  0.00    -0.240 NA
ATOM     11  S   UNL     1      24.948  -0.251  53.259  1.00  0.00    -0.116 S 
ATOM     12  C   UNL     1      23.965   0.980  52.566  1.00  0.00     0.081 A 
BRANCH   9  13
ATOM     13  C   UNL     1      27.695   0.340  53.695  1.00  0.00     0.014 C 
ATOM     14  C   UNL     1      28.746   1.420  53.385  1.00  0.00     0.018 C 
ATOM     15  C   UNL     1      27.668   0.122  55.225  1.00  0.00     0.018 C 
ATOM     16  C   UNL     1      28.106  -0.993  53.039  1.00  0.00     0.018 C 
ENDBRANCH   9  13
BRANCH  12  17
ATOM     17  C   UNL     1      22.565   0.688  52.259  1.00  0.00     0.088 A 
ATOM     18  C   UNL     1      22.034   0.910  51.006  1.00  0.00     0.050 A 
ATOM     19  N   UNL     1      21.842   0.198  53.286  1.00  0.00    -0.212 NA
ATOM     20  C   UNL     1      20.701   0.612  50.871  1.00  0.00     0.117 A 
ATOM     21  C   UNL     1      20.560  -0.074  53.041  1.00  0.00     0.220 A 
ATOM     22  N   UNL     1      19.944   0.132  51.873  1.00  0.00    -0.222 NA
BRANCH  21  23
ATOM     23  N   UNL     1      19.802  -0.560  54.087  1.00  0.00    -0.368 N 
ATOM     24  H   UNL     1      20.228  -0.296  54.966  1.00  0.00     0.159 HD
ATOM     25  H   UNL     1      18.830  -0.310  53.952  1.00  0.00     0.159 HD
ENDBRANCH  21  23
ENDBRANCH  12  17
ENDBRANCH   1   8
BRANCH   5  26
ATOM     26  N   UNL     1      24.791   5.626  48.914  1.00  0.00    -0.276 N 
ATOM     27  H   UNL     1      24.105   6.045  48.282  1.00  0.00     0.180 HD
BRANCH  26  28
ATOM     28  S   UNL     1      26.202   6.572  48.951  1.00  0.00     0.267 S 
ATOM     29  O   UNL     1      27.306   5.681  48.670  1.00  0.00    -0.201 OA
ATOM     30  O   UNL     1      26.182   7.348  50.172  1.00  0.00    -0.201 OA
BRANCH  28  31
ATOM     31  C   UNL     1      26.026   7.637  47.572  1.00  0.00     0.158 A 
ATOM     32  C   UNL     1      27.083   7.901  46.715  1.00  0.00     0.146 A 
ATOM     33  C   UNL     1      24.789   8.225  47.338  1.00  0.00     0.146 A 
ATOM     34  C   UNL     1      26.908   8.760  45.628  1.00  0.00     0.041 A 
ATOM     35  C   UNL     1      24.601   9.086  46.256  1.00  0.00     0.041 A 
ATOM     36  C   UNL     1      25.665   9.354  45.397  1.00  0.00     0.006 A 
ATOM     37  F   UNL     1      28.295   7.363  46.895  1.00  0.00    -0.205 F 
ATOM     38  F   UNL     1      23.757   8.007  48.167  1.00  0.00    -0.205 F 
ENDBRANCH  28  31
ENDBRANCH  26  28
ENDBRANCH   5  26
TORSDOF 7
ENDMDL
