MODEL 1
REMARK minimizedAffinity -7.55285358
REMARK minimizedRMSD -1
REMARK SMILES C#Cc1cccc(Nc2ncnc3cc(OCCOC)c(OCCOC)cc23)c1
REMARK SMILES IDX 9 1 10 2 11 3 12 4 13 5 14 6 15 7 21 8 27 9 28 10 8 11 7 13
REMARK SMILES IDX 2 14 3 15 4 16 29 17 5 18 6 19 1 20 22 21 23 22 24 23 25 24
REMARK SMILES IDX 26 25 16 26 17 27 18 28 19 29 20 30
REMARK H PARENT 8 12
ROOT
ATOM      1  C   UNL     1      26.345   2.559  50.958  1.00  0.00     0.141 A 
ATOM      2  N   UNL     1      27.414   2.516  51.765  1.00  0.00    -0.219 NA
ATOM      3  C   UNL     1      27.413   2.140  53.051  1.00  0.00     0.224 A 
ATOM      4  N   UNL     1      26.248   1.768  53.608  1.00  0.00    -0.236 NA
ATOM      5  C   UNL     1      25.129   1.783  52.868  1.00  0.00     0.080 A 
ATOM      6  C   UNL     1      23.943   1.392  53.480  1.00  0.00     0.079 A 
ATOM      7  C   UNL     1      22.736   1.366  52.830  1.00  0.00     0.163 A 
ATOM      8  C   UNL     1      22.779   1.768  51.480  1.00  0.00     0.162 A 
ATOM      9  C   UNL     1      23.950   2.155  50.871  1.00  0.00     0.064 A 
ATOM     10  C   UNL     1      25.138   2.177  51.524  1.00  0.00     0.047 A 
ENDROOT
BRANCH   1  11
ATOM     11  N   UNL     1      26.387   2.965  49.600  1.00  0.00    -0.340 N 
ATOM     12  H   UNL     1      26.295   2.263  48.827  1.00  0.00     0.168 HD
BRANCH  11  13
ATOM     13  C   UNL     1      26.554   4.313  49.167  1.00  0.00     0.041 A 
ATOM     14  C   UNL     1      29.075   6.648  47.722  1.00  0.00    -0.070 C 
ATOM     15  C   UNL     1      27.821   6.136  48.250  1.00  0.00     0.026 A 
ATOM     16  C   UNL     1      26.752   6.982  48.319  1.00  0.00     0.017 A 
ATOM     17  C   UNL     1      27.738   4.807  48.667  1.00  0.00     0.043 A 
ATOM     18  C   UNL     1      25.548   6.505  48.820  1.00  0.00     0.003 A 
ATOM     19  C   UNL     1      25.493   5.191  49.225  1.00  0.00     0.026 A 
ATOM     20  C   UNL     1      30.118   7.068  47.284  1.00  0.00     0.010 C 
ENDBRANCH  11  13
ENDBRANCH   1  11
BRANCH   8  21
ATOM     21  O   UNL     1      21.596   1.766  50.754  1.00  0.00    -0.487 OA
BRANCH  21  22
ATOM     22  C   UNL     1      21.431   0.842  49.703  1.00  0.00     0.258 C 
BRANCH  22  23
ATOM     23  C   UNL     1      21.090   1.596  48.409  1.00  0.00     0.201 C 
BRANCH  23  24
ATOM     24  O   UNL     1      22.298   1.902  47.780  1.00  0.00    -0.381 OA
ATOM     25  C   UNL     1      22.215   3.158  47.219  1.00  0.00     0.195 C 
ENDBRANCH  23  24
ENDBRANCH  22  23
ENDBRANCH  21  22
ENDBRANCH   8  21
BRANCH   7  26
ATOM     26  O   UNL     1      21.534   1.013  53.320  1.00  0.00    -0.487 OA
BRANCH  26  27
ATOM     27  C   UNL     1      21.300   0.157  54.392  1.00  0.00     0.258 C 
BRANCH  27  28
ATOM     28  C   UNL     1      21.450  -1.308  54.104  1.00  0.00     0.201 C 
BRANCH  28  29
ATOM     29  O   UNL     1      21.991  -1.998  55.176  1.00  0.00    -0.381 OA
ATOM     30  C   UNL     1      23.210  -1.469  55.540  1.00  0.00     0.195 C 
ENDBRANCH  28  29
ENDBRANCH  27  28
ENDBRANCH  26  27
ENDBRANCH   7  26
TORSDOF 10
ENDMDL
MODEL 2
REMARK minimizedAffinity -7.54487371
REMARK minimizedRMSD -1
REMARK SMILES C#Cc1cccc(Nc2ncnc3cc(OCCOC)c(OCCOC)cc23)c1
REMARK SMILES IDX 9 1 10 2 11 3 12 4 13 5 14 6 15 7 21 8 27 9 28 10 8 11 7 13
REMARK SMILES IDX 2 14 3 15 4 16 29 17 5 18 6 19 1 20 22 21 23 22 24 23 25 24
REMARK SMILES IDX 26 25 16 26 17 27 18 28 19 29 20 30
REMARK H PARENT 8 12
ROOT
ATOM      1  C   UNL     1      22.226   1.110  52.999  1.00  0.00     0.141 A 
ATOM      2  N   UNL     1      21.440   0.392  53.813  1.00  0.00    -0.219 NA
ATOM      3  C   UNL     1      21.819  -0.674  54.530  1.00  0.00     0.224 A 
ATOM      4  N   UNL     1      23.096  -1.083  54.444  1.00  0.00    -0.236 NA
ATOM      5  C   UNL     1      23.948  -0.419  53.650  1.00  0.00     0.080 A 
ATOM      6  C   UNL     1      25.261  -0.873  53.587  1.00  0.00     0.079 A 
ATOM      7  C   UNL     1      26.225  -0.280  52.811  1.00  0.00     0.163 A 
ATOM      8  C   UNL     1      25.788   0.838  52.073  1.00  0.00     0.162 A 
ATOM      9  C   UNL     1      24.490   1.291  52.134  1.00  0.00     0.064 A 
ATOM     10  C   UNL     1      23.546   0.695  52.903  1.00  0.00     0.047 A 
ENDROOT
BRANCH   1  11
ATOM     11  N   UNL     1      21.787   2.234  52.254  1.00  0.00    -0.340 N 
ATOM     12  H   UNL     1      21.385   3.074  52.736  1.00  0.00     0.168 HD
BRANCH  11  13
ATOM     13  C   UNL     1      21.844   2.331  50.833  1.00  0.00     0.041 A 
ATOM     14  C   UNL     1      22.743   4.675  48.078  1.00  0.00    -0.070 C 
ATOM     15  C   UNL     1      22.302   3.477  48.772  1.00  0.00     0.026 A 
ATOM     16  C   UNL     1      21.941   2.391  48.028  1.00  0.00     0.017 A 
ATOM     17  C   UNL     1      22.260   3.462  50.167  1.00  0.00     0.043 A 
ATOM     18  C   UNL     1      21.519   1.240  48.679  1.00  0.00     0.003 A 
ATOM     19  C   UNL     1      21.486   1.251  50.054  1.00  0.00     0.026 A 
ATOM     20  C   UNL     1      23.110   5.673  47.506  1.00  0.00     0.010 C 
ENDBRANCH  11  13
ENDBRANCH   1  11
BRANCH   8  21
ATOM     21  O   UNL     1      26.706   1.495  51.266  1.00  0.00    -0.487 OA
BRANCH  21  22
ATOM     22  C   UNL     1      26.557   2.877  51.032  1.00  0.00     0.258 C 
BRANCH  22  23
ATOM     23  C   UNL     1      26.222   3.110  49.550  1.00  0.00     0.201 C 
BRANCH  23  24
ATOM     24  O   UNL     1      26.218   4.489  49.341  1.00  0.00    -0.381 OA
ATOM     25  C   UNL     1      27.401   4.864  48.743  1.00  0.00     0.195 C 
ENDBRANCH  23  24
ENDBRANCH  22  23
ENDBRANCH  21  22
ENDBRANCH   8  21
BRANCH   7  26
ATOM     26  O   UNL     1      27.515  -0.634  52.670  1.00  0.00    -0.487 OA
BRANCH  26  27
ATOM     27  C   UNL     1      28.517  -0.495  53.626  1.00  0.00     0.258 C 
BRANCH  27  28
ATOM     28  C   UNL     1      28.220   0.452  54.752  1.00  0.00     0.201 C 
BRANCH  28  29
ATOM     29  O   UNL     1      29.136   1.489  54.816  1.00  0.00    -0.381 OA
ATOM     30  C   UNL     1      28.891   2.426  53.837  1.00  0.00     0.195 C 
ENDBRANCH  28  29
ENDBRANCH  27  28
ENDBRANCH  26  27
ENDBRANCH   7  26
TORSDOF 10
ENDMDL
MODEL 3
REMARK minimizedAffinity -7.53195
REMARK minimizedRMSD -1
REMARK SMILES C#Cc1cccc(Nc2ncnc3cc(OCCOC)c(OCCOC)cc23)c1
REMARK SMILES IDX 9 1 10 2 11 3 12 4 13 5 14 6 15 7 21 8 27 9 28 10 8 11 7 13
REMARK SMILES IDX 2 14 3 15 4 16 29 17 5 18 6 19 1 20 22 21 23 22 24 23 25 24
REMARK SMILES IDX 26 25 16 26 17 27 18 28 19 29 20 30
REMARK H PARENT 8 12
ROOT
ATOM      1  C   UNL     1      26.280   2.591  50.902  1.00  0.00     0.141 A 
ATOM      2  N   UNL     1      27.364   2.500  51.684  1.00  0.00    -0.219 NA
ATOM      3  C   UNL     1      27.381   2.087  52.959  1.00  0.00     0.224 A 
ATOM      4  N   UNL     1      26.220   1.726  53.529  1.00  0.00    -0.236 NA
ATOM      5  C   UNL     1      25.087   1.788  52.815  1.00  0.00     0.080 A 
ATOM      6  C   UNL     1      23.905   1.407  53.441  1.00  0.00     0.079 A 
ATOM      7  C   UNL     1      22.683   1.427  52.817  1.00  0.00     0.163 A 
ATOM      8  C   UNL     1      22.708   1.867  51.479  1.00  0.00     0.162 A 
ATOM      9  C   UNL     1      23.875   2.244  50.856  1.00  0.00     0.064 A 
ATOM     10  C   UNL     1      25.076   2.220  51.483  1.00  0.00     0.047 A 
ENDROOT
BRANCH   1  11
ATOM     11  N   UNL     1      26.303   3.035  49.556  1.00  0.00    -0.340 N 
ATOM     12  H   UNL     1      26.152   2.362  48.766  1.00  0.00     0.168 HD
BRANCH  11  13
ATOM     13  C   UNL     1      26.526   4.385  49.156  1.00  0.00     0.041 A 
ATOM     14  C   UNL     1      29.115   6.631  47.692  1.00  0.00    -0.070 C 
ATOM     15  C   UNL     1      27.855   6.168  48.249  1.00  0.00     0.026 A 
ATOM     16  C   UNL     1      26.835   7.066  48.380  1.00  0.00     0.017 A 
ATOM     17  C   UNL     1      27.716   4.833  48.629  1.00  0.00     0.043 A 
ATOM     18  C   UNL     1      25.625   6.636  48.909  1.00  0.00     0.003 A 
ATOM     19  C   UNL     1      25.514   5.315  49.277  1.00  0.00     0.026 A 
ATOM     20  C   UNL     1      30.164   7.010  47.230  1.00  0.00     0.010 C 
ENDBRANCH  11  13
ENDBRANCH   1  11
BRANCH   8  21
ATOM     21  O   UNL     1      21.510   1.913  50.779  1.00  0.00    -0.487 OA
BRANCH  21  22
ATOM     22  C   UNL     1      21.040   3.151  50.296  1.00  0.00     0.258 C 
BRANCH  22  23
ATOM     23  C   UNL     1      20.658   4.050  51.482  1.00  0.00     0.201 C 
BRANCH  23  24
ATOM     24  O   UNL     1      19.569   3.452  52.118  1.00  0.00    -0.381 OA
ATOM     25  C   UNL     1      18.429   3.673  51.376  1.00  0.00     0.195 C 
ENDBRANCH  23  24
ENDBRANCH  22  23
ENDBRANCH  21  22
ENDBRANCH   8  21
BRANCH   7  26
ATOM     26  O   UNL     1      21.484   1.088  53.323  1.00  0.00    -0.487 OA
BRANCH  26  27
ATOM     27  C   UNL     1      21.251   0.183  54.355  1.00  0.00     0.258 C 
BRANCH  27  28
ATOM     28  C   UNL     1      21.538  -1.256  54.040  1.00  0.00     0.201 C 
BRANCH  28  29
ATOM     29  O   UNL     1      21.992  -1.952  55.148  1.00  0.00    -0.381 OA
ATOM     30  C   UNL     1      23.230  -1.497  55.545  1.00  0.00     0.195 C 
ENDBRANCH  28  29
ENDBRANCH  27  28
ENDBRANCH  26  27
ENDBRANCH   7  26
TORSDOF 10
ENDMDL
MODEL 4
REMARK minimizedAffinity -7.45195723
REMARK minimizedRMSD -1
REMARK SMILES C#Cc1cccc(Nc2ncnc3cc(OCCOC)c(OCCOC)cc23)c1
REMARK SMILES IDX 9 1 10 2 11 3 12 4 13 5 14 6 15 7 21 8 27 9 28 10 8 11 7 13
REMARK SMILES IDX 2 14 3 15 4 16 29 17 5 18 6 19 1 20 22 21 23 22 24 23 25 24
REMARK SMILES IDX 26 25 16 26 17 27 18 28 19 29 20 30
REMARK H PARENT 8 12
ROOT
ATOM      1  C   UNL     1      22.818   5.312  51.796  1.00  0.00     0.141 A 
ATOM      2  N   UNL     1      21.576   5.528  51.341  1.00  0.00    -0.219 NA
ATOM      3  C   UNL     1      20.619   4.601  51.200  1.00  0.00     0.224 A 
ATOM      4  N   UNL     1      20.903   3.332  51.536  1.00  0.00    -0.236 NA
ATOM      5  C   UNL     1      22.124   3.030  52.000  1.00  0.00     0.080 A 
ATOM      6  C   UNL     1      22.380   1.705  52.337  1.00  0.00     0.079 A 
ATOM      7  C   UNL     1      23.589   1.273  52.820  1.00  0.00     0.163 A 
ATOM      8  C   UNL     1      24.568   2.277  52.955  1.00  0.00     0.162 A 
ATOM      9  C   UNL     1      24.319   3.588  52.623  1.00  0.00     0.064 A 
ATOM     10  C   UNL     1      23.120   4.004  52.145  1.00  0.00     0.047 A 
ENDROOT
BRANCH   1  11
ATOM     11  N   UNL     1      23.805   6.321  51.930  1.00  0.00    -0.340 N 
ATOM     12  H   UNL     1      24.086   6.675  52.876  1.00  0.00     0.168 HD
BRANCH  11  13
ATOM     13  C   UNL     1      24.485   6.933  50.837  1.00  0.00     0.041 A 
ATOM     14  C   UNL     1      27.404   6.481  48.563  1.00  0.00    -0.070 C 
ATOM     15  C   UNL     1      26.215   7.051  49.175  1.00  0.00     0.026 A 
ATOM     16  C   UNL     1      25.721   8.219  48.669  1.00  0.00     0.017 A 
ATOM     17  C   UNL     1      25.612   6.401  50.252  1.00  0.00     0.043 A 
ATOM     18  C   UNL     1      24.585   8.773  49.243  1.00  0.00     0.003 A 
ATOM     19  C   UNL     1      24.010   8.113  50.303  1.00  0.00     0.026 A 
ATOM     20  C   UNL     1      28.390   6.003  48.059  1.00  0.00     0.010 C 
ENDBRANCH  11  13
ENDBRANCH   1  11
BRANCH   8  21
ATOM     21  O   UNL     1      25.818   1.917  53.440  1.00  0.00    -0.487 OA
BRANCH  21  22
ATOM     22  C   UNL     1      26.949   2.065  52.613  1.00  0.00     0.258 C 
BRANCH  22  23
ATOM     23  C   UNL     1      28.213   2.130  53.484  1.00  0.00     0.201 C 
BRANCH  23  24
ATOM     24  O   UNL     1      27.939   1.430  54.660  1.00  0.00    -0.381 OA
ATOM     25  C   UNL     1      28.735   0.306  54.718  1.00  0.00     0.195 C 
ENDBRANCH  23  24
ENDBRANCH  22  23
ENDBRANCH  21  22
ENDBRANCH   8  21
BRANCH   7  26
ATOM     26  O   UNL     1      23.947   0.024  53.171  1.00  0.00    -0.487 OA
BRANCH  26  27
ATOM     27  C   UNL     1      23.086  -1.019  53.499  1.00  0.00     0.258 C 
BRANCH  27  28
ATOM     28  C   UNL     1      22.784  -1.183  54.960  1.00  0.00     0.201 C 
BRANCH  28  29
ATOM     29  O   UNL     1      21.555  -1.786  55.173  1.00  0.00    -0.381 OA
ATOM     30  C   UNL     1      20.666  -1.467  54.170  1.00  0.00     0.195 C 
ENDBRANCH  28  29
ENDBRANCH  27  28
ENDBRANCH  26  27
ENDBRANCH   7  26
TORSDOF 10
ENDMDL
MODEL 5
REMARK minimizedAffinity -7.42726088
REMARK minimizedRMSD -1
REMARK SMILES C#Cc1cccc(Nc2ncnc3cc(OCCOC)c(OCCOC)cc23)c1
REMARK SMILES IDX 9 1 10 2 11 3 12 4 13 5 14 6 15 7 21 8 27 9 28 10 8 11 7 13
REMARK SMILES IDX 2 14 3 15 4 16 29 17 5 18 6 19 1 20 22 21 23 22 24 23 25 24
REMARK SMILES IDX 26 25 16 26 17 27 18 28 19 29 20 30
REMARK H PARENT 8 12
ROOT
ATOM      1  C   UNL     1      26.422   2.481  51.104  1.00  0.00     0.141 A 
ATOM      2  N   UNL     1      27.484   2.357  51.912  1.00  0.00    -0.219 NA
ATOM      3  C   UNL     1      27.462   1.909  53.174  1.00  0.00     0.224 A 
ATOM      4  N   UNL     1      26.282   1.545  53.703  1.00  0.00    -0.236 NA
ATOM      5  C   UNL     1      25.170   1.639  52.961  1.00  0.00     0.080 A 
ATOM      6  C   UNL     1      23.968   1.254  53.545  1.00  0.00     0.079 A 
ATOM      7  C   UNL     1      22.764   1.305  52.889  1.00  0.00     0.163 A 
ATOM      8  C   UNL     1      22.828   1.780  51.564  1.00  0.00     0.162 A 
ATOM      9  C   UNL     1      24.016   2.162  50.984  1.00  0.00     0.064 A 
ATOM     10  C   UNL     1      25.200   2.108  51.642  1.00  0.00     0.047 A 
ENDROOT
BRANCH   1  11
ATOM     11  N   UNL     1      26.486   2.961  49.771  1.00  0.00    -0.340 N 
ATOM     12  H   UNL     1      26.473   2.297  48.959  1.00  0.00     0.168 HD
BRANCH  11  13
ATOM     13  C   UNL     1      26.573   4.338  49.414  1.00  0.00     0.041 A 
ATOM     14  C   UNL     1      24.801   7.595  49.801  1.00  0.00    -0.070 C 
ATOM     15  C   UNL     1      25.795   6.611  49.407  1.00  0.00     0.026 A 
ATOM     16  C   UNL     1      26.868   7.030  48.673  1.00  0.00     0.017 A 
ATOM     17  C   UNL     1      25.635   5.277  49.782  1.00  0.00     0.043 A 
ATOM     18  C   UNL     1      27.826   6.101  48.291  1.00  0.00     0.003 A 
ATOM     19  C   UNL     1      27.644   4.792  48.674  1.00  0.00     0.026 A 
ATOM     20  C   UNL     1      23.973   8.408  50.132  1.00  0.00     0.010 C 
ENDBRANCH  11  13
ENDBRANCH   1  11
BRANCH   8  21
ATOM     21  O   UNL     1      21.651   1.859  50.834  1.00  0.00    -0.487 OA
BRANCH  21  22
ATOM     22  C   UNL     1      21.237   3.105  50.322  1.00  0.00     0.258 C 
BRANCH  22  23
ATOM     23  C   UNL     1      20.736   3.989  51.475  1.00  0.00     0.201 C 
BRANCH  23  24
ATOM     24  O   UNL     1      19.668   3.318  52.073  1.00  0.00    -0.381 OA
ATOM     25  C   UNL     1      18.496   3.666  51.437  1.00  0.00     0.195 C 
ENDBRANCH  23  24
ENDBRANCH  22  23
ENDBRANCH  21  22
ENDBRANCH   8  21
BRANCH   7  26
ATOM     26  O   UNL     1      21.548   0.965  53.353  1.00  0.00    -0.487 OA
BRANCH  26  27
ATOM     27  C   UNL     1      21.282   0.152  54.451  1.00  0.00     0.258 C 
BRANCH  27  28
ATOM     28  C   UNL     1      21.193  -1.319  54.169  1.00  0.00     0.201 C 
BRANCH  28  29
ATOM     29  O   UNL     1      21.845  -2.075  55.129  1.00  0.00    -0.381 OA
ATOM     30  C   UNL     1      23.050  -1.503  55.474  1.00  0.00     0.195 C 
ENDBRANCH  28  29
ENDBRANCH  27  28
ENDBRANCH  26  27
ENDBRANCH   7  26
TORSDOF 10
ENDMDL
MODEL 6
REMARK minimizedAffinity -7.31964493
REMARK minimizedRMSD -1
REMARK SMILES C#Cc1cccc(Nc2ncnc3cc(OCCOC)c(OCCOC)cc23)c1
REMARK SMILES IDX 9 1 10 2 11 3 12 4 13 5 14 6 15 7 21 8 27 9 28 10 8 11 7 13
REMARK SMILES IDX 2 14 3 15 4 16 29 17 5 18 6 19 1 20 22 21 23 22 24 23 25 24
REMARK SMILES IDX 26 25 16 26 17 27 18 28 19 29 20 30
REMARK H PARENT 8 12
ROOT
ATOM      1  C   UNL     1      23.565   3.559  51.252  1.00  0.00     0.141 A 
ATOM      2  N   UNL     1      24.017   4.552  50.473  1.00  0.00    -0.219 NA
ATOM      3  C   UNL     1      25.267   4.679  50.008  1.00  0.00     0.224 A 
ATOM      4  N   UNL     1      26.171   3.742  50.339  1.00  0.00    -0.236 NA
ATOM      5  C   UNL     1      25.801   2.714  51.117  1.00  0.00     0.080 A 
ATOM      6  C   UNL     1      26.765   1.765  51.439  1.00  0.00     0.079 A 
ATOM      7  C   UNL     1      26.509   0.670  52.226  1.00  0.00     0.163 A 
ATOM      8  C   UNL     1      25.183   0.572  52.693  1.00  0.00     0.162 A 
ATOM      9  C   UNL     1      24.227   1.509  52.377  1.00  0.00     0.064 A 
ATOM     10  C   UNL     1      24.492   2.587  51.599  1.00  0.00     0.047 A 
ENDROOT
BRANCH   1  11
ATOM     11  N   UNL     1      22.232   3.459  51.724  1.00  0.00    -0.340 N 
ATOM     12  H   UNL     1      21.915   4.009  52.559  1.00  0.00     0.168 HD
BRANCH  11  13
ATOM     13  C   UNL     1      21.229   2.634  51.136  1.00  0.00     0.041 A 
ATOM     14  C   UNL     1      18.761  -0.035  51.958  1.00  0.00    -0.070 C 
ATOM     15  C   UNL     1      19.525   0.943  51.202  1.00  0.00     0.026 A 
ATOM     16  C   UNL     1      19.258   1.085  49.870  1.00  0.00     0.017 A 
ATOM     17  C   UNL     1      20.501   1.705  51.844  1.00  0.00     0.043 A 
ATOM     18  C   UNL     1      19.980   2.018  49.137  1.00  0.00     0.003 A 
ATOM     19  C   UNL     1      20.937   2.756  49.794  1.00  0.00     0.026 A 
ATOM     20  C   UNL     1      18.129  -0.845  52.591  1.00  0.00     0.010 C 
ENDBRANCH  11  13
ENDBRANCH   1  11
BRANCH   8  21
ATOM     21  O   UNL     1      24.846  -0.510  53.494  1.00  0.00    -0.487 OA
BRANCH  21  22
ATOM     22  C   UNL     1      23.490  -0.754  53.791  1.00  0.00     0.258 C 
BRANCH  22  23
ATOM     23  C   UNL     1      23.378  -1.376  55.191  1.00  0.00     0.201 C 
BRANCH  23  24
ATOM     24  O   UNL     1      22.019  -1.473  55.492  1.00  0.00    -0.381 OA
ATOM     25  C   UNL     1      21.304  -0.663  54.637  1.00  0.00     0.195 C 
ENDBRANCH  23  24
ENDBRANCH  22  23
ENDBRANCH  21  22
ENDBRANCH   8  21
BRANCH   7  26
ATOM     26  O   UNL     1      27.359  -0.301  52.603  1.00  0.00    -0.487 OA
BRANCH  26  27
ATOM     27  C   UNL     1      28.527  -0.134  53.341  1.00  0.00     0.258 C 
BRANCH  27  28
ATOM     28  C   UNL     1      28.347   0.040  54.820  1.00  0.00     0.201 C 
BRANCH  28  29
ATOM     29  O   UNL     1      28.790   1.277  55.258  1.00  0.00    -0.381 OA
ATOM     30  C   UNL     1      29.373   1.985  54.231  1.00  0.00     0.195 C 
ENDBRANCH  28  29
ENDBRANCH  27  28
ENDBRANCH  26  27
ENDBRANCH   7  26
TORSDOF 10
ENDMDL
MODEL 7
REMARK minimizedAffinity -7.29773855
REMARK minimizedRMSD -1
REMARK SMILES C#Cc1cccc(Nc2ncnc3cc(OCCOC)c(OCCOC)cc23)c1
REMARK SMILES IDX 9 1 10 2 11 3 12 4 13 5 14 6 15 7 21 8 27 9 28 10 8 11 7 13
REMARK SMILES IDX 2 14 3 15 4 16 29 17 5 18 6 19 1 20 22 21 23 22 24 23 25 24
REMARK SMILES IDX 26 25 16 26 17 27 18 28 19 29 20 30
REMARK H PARENT 8 12
ROOT
ATOM      1  C   UNL     1      22.179   3.509  51.565  1.00  0.00     0.141 A 
ATOM      2  N   UNL     1      22.255   4.510  50.678  1.00  0.00    -0.219 NA
ATOM      3  C   UNL     1      23.363   4.910  50.037  1.00  0.00     0.224 A 
ATOM      4  N   UNL     1      24.514   4.266  50.289  1.00  0.00    -0.236 NA
ATOM      5  C   UNL     1      24.525   3.251  51.166  1.00  0.00     0.080 A 
ATOM      6  C   UNL     1      25.736   2.610  51.400  1.00  0.00     0.079 A 
ATOM      7  C   UNL     1      25.875   1.561  52.273  1.00  0.00     0.163 A 
ATOM      8  C   UNL     1      24.689   1.171  52.926  1.00  0.00     0.162 A 
ATOM      9  C   UNL     1      23.488   1.802  52.696  1.00  0.00     0.064 A 
ATOM     10  C   UNL     1      23.364   2.838  51.831  1.00  0.00     0.047 A 
ENDROOT
BRANCH   1  11
ATOM     11  N   UNL     1      20.986   3.116  52.223  1.00  0.00    -0.340 N 
ATOM     12  H   UNL     1      20.709   3.548  53.137  1.00  0.00     0.168 HD
BRANCH  11  13
ATOM     13  C   UNL     1      20.080   2.132  51.729  1.00  0.00     0.041 A 
ATOM     14  C   UNL     1      18.261  -0.962  52.737  1.00  0.00    -0.070 C 
ATOM     15  C   UNL     1      18.732   0.154  51.934  1.00  0.00     0.026 A 
ATOM     16  C   UNL     1      18.273   0.271  50.653  1.00  0.00     0.017 A 
ATOM     17  C   UNL     1      19.629   1.071  52.482  1.00  0.00     0.043 A 
ATOM     18  C   UNL     1      18.714   1.334  49.876  1.00  0.00     0.003 A 
ATOM     19  C   UNL     1      19.599   2.223  50.440  1.00  0.00     0.026 A 
ATOM     20  C   UNL     1      17.873  -1.886  53.408  1.00  0.00     0.010 C 
ENDBRANCH  11  13
ENDBRANCH   1  11
BRANCH   8  21
ATOM     21  O   UNL     1      24.747   0.114  53.824  1.00  0.00    -0.487 OA
BRANCH  21  22
ATOM     22  C   UNL     1      23.630  -0.732  53.970  1.00  0.00     0.258 C 
BRANCH  22  23
ATOM     23  C   UNL     1      23.584  -1.273  55.407  1.00  0.00     0.201 C 
BRANCH  23  24
ATOM     24  O   UNL     1      22.383  -1.970  55.546  1.00  0.00    -0.381 OA
ATOM     25  C   UNL     1      21.531  -1.620  54.522  1.00  0.00     0.195 C 
ENDBRANCH  23  24
ENDBRANCH  22  23
ENDBRANCH  21  22
ENDBRANCH   8  21
BRANCH   7  26
ATOM     26  O   UNL     1      26.990   0.874  52.580  1.00  0.00    -0.487 OA
BRANCH  26  27
ATOM     27  C   UNL     1      27.968   1.257  53.493  1.00  0.00     0.258 C 
BRANCH  27  28
ATOM     28  C   UNL     1      28.289   0.256  54.565  1.00  0.00     0.201 C 
BRANCH  28  29
ATOM     29  O   UNL     1      28.500  -1.012  54.048  1.00  0.00    -0.381 OA
ATOM     30  C   UNL     1      29.809  -1.172  53.650  1.00  0.00     0.195 C 
ENDBRANCH  28  29
ENDBRANCH  27  28
ENDBRANCH  26  27
ENDBRANCH   7  26
TORSDOF 10
ENDMDL
MODEL 8
REMARK minimizedAffinity -7.26839828
REMARK minimizedRMSD -1
REMARK SMILES C#Cc1cccc(Nc2ncnc3cc(OCCOC)c(OCCOC)cc23)c1
REMARK SMILES IDX 9 1 10 2 11 3 12 4 13 5 14 6 15 7 21 8 27 9 28 10 8 11 7 13
REMARK SMILES IDX 2 14 3 15 4 16 29 17 5 18 6 19 1 20 22 21 23 22 24 23 25 24
REMARK SMILES IDX 26 25 16 26 17 27 18 28 19 29 20 30
REMARK H PARENT 8 12
ROOT
ATOM      1  C   UNL     1      25.332   2.837  51.754  1.00  0.00     0.141 A 
ATOM      2  N   UNL     1      25.906   3.583  50.800  1.00  0.00    -0.219 NA
ATOM      3  C   UNL     1      25.416   3.802  49.573  1.00  0.00     0.224 A 
ATOM      4  N   UNL     1      24.244   3.234  49.241  1.00  0.00    -0.236 NA
ATOM      5  C   UNL     1      23.604   2.471  50.139  1.00  0.00     0.080 A 
ATOM      6  C   UNL     1      22.394   1.900  49.759  1.00  0.00     0.079 A 
ATOM      7  C   UNL     1      21.647   1.101  50.586  1.00  0.00     0.163 A 
ATOM      8  C   UNL     1      22.196   0.896  51.868  1.00  0.00     0.162 A 
ATOM      9  C   UNL     1      23.391   1.460  52.248  1.00  0.00     0.064 A 
ATOM     10  C   UNL     1      24.122   2.247  51.421  1.00  0.00     0.047 A 
ENDROOT
BRANCH   1  11
ATOM     11  N   UNL     1      25.884   2.629  53.044  1.00  0.00    -0.340 N 
ATOM     12  H   UNL     1      25.427   3.034  53.896  1.00  0.00     0.168 HD
BRANCH  11  13
ATOM     13  C   UNL     1      27.069   1.879  53.300  1.00  0.00     0.041 A 
ATOM     14  C   UNL     1      28.453  -1.579  53.151  1.00  0.00    -0.070 C 
ATOM     15  C   UNL     1      28.363  -0.144  53.364  1.00  0.00     0.026 A 
ATOM     16  C   UNL     1      29.469   0.516  53.817  1.00  0.00     0.017 A 
ATOM     17  C   UNL     1      27.164   0.520  53.103  1.00  0.00     0.043 A 
ATOM     18  C   UNL     1      29.396   1.887  54.023  1.00  0.00     0.003 A 
ATOM     19  C   UNL     1      28.202   2.517  53.759  1.00  0.00     0.026 A 
ATOM     20  C   UNL     1      28.523  -2.770  52.972  1.00  0.00     0.010 C 
ENDBRANCH  11  13
ENDBRANCH   1  11
BRANCH   8  21
ATOM     21  O   UNL     1      21.496   0.100  52.764  1.00  0.00    -0.487 OA
BRANCH  21  22
ATOM     22  C   UNL     1      22.054  -1.125  53.181  1.00  0.00     0.258 C 
BRANCH  22  23
ATOM     23  C   UNL     1      21.337  -1.606  54.452  1.00  0.00     0.201 C 
BRANCH  23  24
ATOM     24  O   UNL     1      22.098  -1.178  55.541  1.00  0.00    -0.381 OA
ATOM     25  C   UNL     1      23.435  -1.353  55.260  1.00  0.00     0.195 C 
ENDBRANCH  23  24
ENDBRANCH  22  23
ENDBRANCH  21  22
ENDBRANCH   8  21
BRANCH   7  26
ATOM     26  O   UNL     1      20.474   0.497  50.324  1.00  0.00    -0.487 OA
BRANCH  26  27
ATOM     27  C   UNL     1      19.207   1.048  50.491  1.00  0.00     0.258 C 
BRANCH  27  28
ATOM     28  C   UNL     1      18.102   0.073  50.776  1.00  0.00     0.201 C 
BRANCH  28  29
ATOM     29  O   UNL     1      17.646   0.168  52.081  1.00  0.00    -0.381 OA
ATOM     30  C   UNL     1      18.093  -0.891  52.839  1.00  0.00     0.195 C 
ENDBRANCH  28  29
ENDBRANCH  27  28
ENDBRANCH  26  27
ENDBRANCH   7  26
TORSDOF 10
ENDMDL
MODEL 9
REMARK minimizedAffinity -7.25049591
REMARK minimizedRMSD -1
REMARK SMILES C#Cc1cccc(Nc2ncnc3cc(OCCOC)c(OCCOC)cc23)c1
REMARK SMILES IDX 9 1 10 2 11 3 12 4 13 5 14 6 15 7 21 8 27 9 28 10 8 11 7 13
REMARK SMILES IDX 2 14 3 15 4 16 29 17 5 18 6 19 1 20 22 21 23 22 24 23 25 24
REMARK SMILES IDX 26 25 16 26 17 27 18 28 19 29 20 30
REMARK H PARENT 8 12
ROOT
ATOM      1  C   UNL     1      25.616   3.790  49.706  1.00  0.00     0.141 A 
ATOM      2  N   UNL     1      24.571   4.369  49.099  1.00  0.00    -0.219 NA
ATOM      3  C   UNL     1      23.279   4.111  49.343  1.00  0.00     0.224 A 
ATOM      4  N   UNL     1      22.975   3.193  50.276  1.00  0.00    -0.236 NA
ATOM      5  C   UNL     1      23.963   2.566  50.931  1.00  0.00     0.080 A 
ATOM      6  C   UNL     1      23.609   1.622  51.888  1.00  0.00     0.079 A 
ATOM      7  C   UNL     1      24.527   0.915  52.622  1.00  0.00     0.163 A 
ATOM      8  C   UNL     1      25.874   1.215  52.337  1.00  0.00     0.162 A 
ATOM      9  C   UNL     1      26.228   2.149  51.391  1.00  0.00     0.064 A 
ATOM     10  C   UNL     1      25.312   2.841  50.671  1.00  0.00     0.047 A 
ENDROOT
BRANCH   1  11
ATOM     11  N   UNL     1      26.972   4.091  49.419  1.00  0.00    -0.340 N 
ATOM     12  H   UNL     1      27.739   3.436  49.704  1.00  0.00     0.168 HD
BRANCH  11  13
ATOM     13  C   UNL     1      27.410   5.267  48.743  1.00  0.00     0.041 A 
ATOM     14  C   UNL     1      30.408   6.793  47.139  1.00  0.00    -0.070 C 
ATOM     15  C   UNL     1      29.048   6.617  47.620  1.00  0.00     0.026 A 
ATOM     16  C   UNL     1      28.148   7.619  47.400  1.00  0.00     0.017 A 
ATOM     17  C   UNL     1      28.697   5.443  48.285  1.00  0.00     0.043 A 
ATOM     18  C   UNL     1      26.844   7.463  47.852  1.00  0.00     0.003 A 
ATOM     19  C   UNL     1      26.524   6.296  48.506  1.00  0.00     0.026 A 
ATOM     20  C   UNL     1      31.539   6.934  46.741  1.00  0.00     0.010 C 
ENDBRANCH  11  13
ENDBRANCH   1  11
BRANCH   8  21
ATOM     21  O   UNL     1      26.862   0.542  53.041  1.00  0.00    -0.487 OA
BRANCH  21  22
ATOM     22  C   UNL     1      28.092   1.184  53.290  1.00  0.00     0.258 C 
BRANCH  22  23
ATOM     23  C   UNL     1      28.685   0.657  54.606  1.00  0.00     0.201 C 
BRANCH  23  24
ATOM     24  O   UNL     1      28.815  -0.726  54.474  1.00  0.00    -0.381 OA
ATOM     25  C   UNL     1      29.919  -1.010  53.700  1.00  0.00     0.195 C 
ENDBRANCH  23  24
ENDBRANCH  22  23
ENDBRANCH  21  22
ENDBRANCH   8  21
BRANCH   7  26
ATOM     26  O   UNL     1      24.299  -0.019  53.564  1.00  0.00    -0.487 OA
BRANCH  26  27
ATOM     27  C   UNL     1      23.190  -0.856  53.643  1.00  0.00     0.258 C 
BRANCH  27  28
ATOM     28  C   UNL     1      22.807  -1.305  55.022  1.00  0.00     0.201 C 
BRANCH  28  29
ATOM     29  O   UNL     1      21.442  -1.512  55.142  1.00  0.00    -0.381 OA
ATOM     30  C   UNL     1      20.784  -1.157  53.986  1.00  0.00     0.195 C 
ENDBRANCH  28  29
ENDBRANCH  27  28
ENDBRANCH  26  27
ENDBRANCH   7  26
TORSDOF 10
ENDMDL
MODEL 10
REMARK minimizedAffinity -7.09808493
REMARK minimizedRMSD -1
REMARK SMILES C#Cc1cccc(Nc2ncnc3cc(OCCOC)c(OCCOC)cc23)c1
REMARK SMILES IDX 9 1 10 2 11 3 12 4 13 5 14 6 15 7 21 8 27 9 28 10 8 11 7 13
REMARK SMILES IDX 2 14 3 15 4 16 29 17 5 18 6 19 1 20 22 21 23 22 24 23 25 24
REMARK SMILES IDX 26 25 16 26 17 27 18 28 19 29 20 30
REMARK H PARENT 8 12
ROOT
ATOM      1  C   UNL     1      25.743   3.913  49.707  1.00  0.00     0.141 A 
ATOM      2  N   UNL     1      24.710   4.447  49.040  1.00  0.00    -0.219 NA
ATOM      3  C   UNL     1      23.416   4.150  49.228  1.00  0.00     0.224 A 
ATOM      4  N   UNL     1      23.099   3.236  50.160  1.00  0.00    -0.236 NA
ATOM      5  C   UNL     1      24.074   2.653  50.871  1.00  0.00     0.080 A 
ATOM      6  C   UNL     1      23.705   1.712  51.826  1.00  0.00     0.079 A 
ATOM      7  C   UNL     1      24.610   1.047  52.615  1.00  0.00     0.163 A 
ATOM      8  C   UNL     1      25.958   1.388  52.389  1.00  0.00     0.162 A 
ATOM      9  C   UNL     1      26.327   2.319  51.446  1.00  0.00     0.064 A 
ATOM     10  C   UNL     1      25.424   2.969  50.671  1.00  0.00     0.047 A 
ENDROOT
BRANCH   1  11
ATOM     11  N   UNL     1      27.100   4.255  49.479  1.00  0.00    -0.340 N 
ATOM     12  H   UNL     1      27.875   3.675  49.882  1.00  0.00     0.168 HD
BRANCH  11  13
ATOM     13  C   UNL     1      27.531   5.376  48.712  1.00  0.00     0.041 A 
ATOM     14  C   UNL     1      26.310   8.572  47.231  1.00  0.00    -0.070 C 
ATOM     15  C   UNL     1      27.196   7.483  47.608  1.00  0.00     0.026 A 
ATOM     16  C   UNL     1      28.503   7.547  47.220  1.00  0.00     0.017 A 
ATOM     17  C   UNL     1      26.698   6.411  48.349  1.00  0.00     0.043 A 
ATOM     18  C   UNL     1      29.361   6.515  47.576  1.00  0.00     0.003 A 
ATOM     19  C   UNL     1      28.845   5.469  48.306  1.00  0.00     0.026 A 
ATOM     20  C   UNL     1      25.569   9.473  46.922  1.00  0.00     0.010 C 
ENDBRANCH  11  13
ENDBRANCH   1  11
BRANCH   8  21
ATOM     21  O   UNL     1      26.933   0.759  53.150  1.00  0.00    -0.487 OA
BRANCH  21  22
ATOM     22  C   UNL     1      28.013   1.515  53.651  1.00  0.00     0.258 C 
BRANCH  22  23
ATOM     23  C   UNL     1      29.130   0.565  54.109  1.00  0.00     0.201 C 
BRANCH  23  24
ATOM     24  O   UNL     1      28.604  -0.727  54.096  1.00  0.00    -0.381 OA
ATOM     25  C   UNL     1      29.483  -1.572  53.454  1.00  0.00     0.195 C 
ENDBRANCH  23  24
ENDBRANCH  22  23
ENDBRANCH  21  22
ENDBRANCH   8  21
BRANCH   7  26
ATOM     26  O   UNL     1      24.368   0.121  53.560  1.00  0.00    -0.487 OA
BRANCH  26  27
ATOM     27  C   UNL     1      23.289  -0.758  53.596  1.00  0.00     0.258 C 
BRANCH  27  28
ATOM     28  C   UNL     1      22.874  -1.228  54.959  1.00  0.00     0.201 C 
BRANCH  28  29
ATOM     29  O   UNL     1      21.499  -1.196  55.125  1.00  0.00    -0.381 OA
ATOM     30  C   UNL     1      20.918  -0.291  54.264  1.00  0.00     0.195 C 
ENDBRANCH  28  29
ENDBRANCH  27  28
ENDBRANCH  26  27
ENDBRANCH   7  26
TORSDOF 10
ENDMDL
MODEL 11
REMARK minimizedAffinity -7.0851388
REMARK minimizedRMSD -1
REMARK SMILES C#Cc1cccc(Nc2ncnc3cc(OCCOC)c(OCCOC)cc23)c1
REMARK SMILES IDX 9 1 10 2 11 3 12 4 13 5 14 6 15 7 21 8 27 9 28 10 8 11 7 13
REMARK SMILES IDX 2 14 3 15 4 16 29 17 5 18 6 19 1 20 22 21 23 22 24 23 25 24
REMARK SMILES IDX 26 25 16 26 17 27 18 28 19 29 20 30
REMARK H PARENT 8 12
ROOT
ATOM      1  C   UNL     1      24.070   4.519  50.042  1.00  0.00     0.141 A 
ATOM      2  N   UNL     1      23.213   4.545  49.013  1.00  0.00    -0.219 NA
ATOM      3  C   UNL     1      22.317   3.595  48.712  1.00  0.00     0.224 A 
ATOM      4  N   UNL     1      22.252   2.506  49.496  1.00  0.00    -0.236 NA
ATOM      5  C   UNL     1      23.077   2.401  50.549  1.00  0.00     0.080 A 
ATOM      6  C   UNL     1      22.980   1.259  51.336  1.00  0.00     0.079 A 
ATOM      7  C   UNL     1      23.768   1.036  52.436  1.00  0.00     0.163 A 
ATOM      8  C   UNL     1      24.696   2.058  52.720  1.00  0.00     0.162 A 
ATOM      9  C   UNL     1      24.794   3.190  51.944  1.00  0.00     0.064 A 
ATOM     10  C   UNL     1      24.010   3.399  50.857  1.00  0.00     0.047 A 
ENDROOT
BRANCH   1  11
ATOM     11  N   UNL     1      25.005   5.547  50.328  1.00  0.00    -0.340 N 
ATOM     12  H   UNL     1      24.883   6.168  51.163  1.00  0.00     0.168 HD
BRANCH  11  13
ATOM     13  C   UNL     1      26.158   5.828  49.538  1.00  0.00     0.041 A 
ATOM     14  C   UNL     1      28.016   8.637  47.940  1.00  0.00    -0.070 C 
ATOM     15  C   UNL     1      27.657   7.295  48.367  1.00  0.00     0.026 A 
ATOM     16  C   UNL     1      28.471   6.260  48.006  1.00  0.00     0.017 A 
ATOM     17  C   UNL     1      26.505   7.096  49.128  1.00  0.00     0.043 A 
ATOM     18  C   UNL     1      28.141   4.973  48.409  1.00  0.00     0.003 A 
ATOM     19  C   UNL     1      27.000   4.804  49.158  1.00  0.00     0.026 A 
ATOM     20  C   UNL     1      28.309   9.754  47.589  1.00  0.00     0.010 C 
ENDBRANCH  11  13
ENDBRANCH   1  11
BRANCH   8  21
ATOM     21  O   UNL     1      25.528   1.906  53.820  1.00  0.00    -0.487 OA
BRANCH  21  22
ATOM     22  C   UNL     1      26.869   1.518  53.624  1.00  0.00     0.258 C 
BRANCH  22  23
ATOM     23  C   UNL     1      27.242   0.438  54.651  1.00  0.00     0.201 C 
BRANCH  23  24
ATOM     24  O   UNL     1      26.801  -0.784  54.142  1.00  0.00    -0.381 OA
ATOM     25  C   UNL     1      27.315  -0.963  52.876  1.00  0.00     0.195 C 
ENDBRANCH  23  24
ENDBRANCH  22  23
ENDBRANCH  21  22
ENDBRANCH   8  21
BRANCH   7  26
ATOM     26  O   UNL     1      23.764  -0.026  53.262  1.00  0.00    -0.487 OA
BRANCH  26  27
ATOM     27  C   UNL     1      22.707  -0.908  53.465  1.00  0.00     0.258 C 
BRANCH  27  28
ATOM     28  C   UNL     1      22.119  -0.917  54.846  1.00  0.00     0.201 C 
BRANCH  28  29
ATOM     29  O   UNL     1      21.087  -0.004  54.980  1.00  0.00    -0.381 OA
ATOM     30  C   UNL     1      20.376   0.114  53.806  1.00  0.00     0.195 C 
ENDBRANCH  28  29
ENDBRANCH  27  28
ENDBRANCH  26  27
ENDBRANCH   7  26
TORSDOF 10
ENDMDL
MODEL 12
REMARK minimizedAffinity -6.90987539
REMARK minimizedRMSD -1
REMARK SMILES C#Cc1cccc(Nc2ncnc3cc(OCCOC)c(OCCOC)cc23)c1
REMARK SMILES IDX 9 1 10 2 11 3 12 4 13 5 14 6 15 7 21 8 27 9 28 10 8 11 7 13
REMARK SMILES IDX 2 14 3 15 4 16 29 17 5 18 6 19 1 20 22 21 23 22 24 23 25 24
REMARK SMILES IDX 26 25 16 26 17 27 18 28 19 29 20 30
REMARK H PARENT 8 12
ROOT
ATOM      1  C   UNL     1      26.376   2.544  50.937  1.00  0.00     0.141 A 
ATOM      2  N   UNL     1      27.271   2.548  51.934  1.00  0.00    -0.219 NA
ATOM      3  C   UNL     1      27.051   2.135  53.189  1.00  0.00     0.224 A 
ATOM      4  N   UNL     1      25.830   1.670  53.505  1.00  0.00    -0.236 NA
ATOM      5  C   UNL     1      24.875   1.633  52.564  1.00  0.00     0.080 A 
ATOM      6  C   UNL     1      23.625   1.147  52.930  1.00  0.00     0.079 A 
ATOM      7  C   UNL     1      22.568   1.060  52.059  1.00  0.00     0.163 A 
ATOM      8  C   UNL     1      22.840   1.504  50.749  1.00  0.00     0.162 A 
ATOM      9  C   UNL     1      24.076   1.985  50.384  1.00  0.00     0.064 A 
ATOM     10  C   UNL     1      25.113   2.067  51.254  1.00  0.00     0.047 A 
ENDROOT
BRANCH   1  11
ATOM     11  N   UNL     1      26.648   2.991  49.619  1.00  0.00    -0.340 N 
ATOM     12  H   UNL     1      26.775   2.307  48.835  1.00  0.00     0.168 HD
BRANCH  11  13
ATOM     13  C   UNL     1      26.773   4.361  49.243  1.00  0.00     0.041 A 
ATOM     14  C   UNL     1      29.104   6.759  47.597  1.00  0.00    -0.070 C 
ATOM     15  C   UNL     1      27.928   6.225  48.263  1.00  0.00     0.026 A 
ATOM     16  C   UNL     1      26.891   7.073  48.527  1.00  0.00     0.017 A 
ATOM     17  C   UNL     1      27.884   4.875  48.613  1.00  0.00     0.043 A 
ATOM     18  C   UNL     1      25.760   6.576  49.162  1.00  0.00     0.003 A 
ATOM     19  C   UNL     1      25.742   5.242  49.496  1.00  0.00     0.026 A 
ATOM     20  C   UNL     1      30.082   7.196  47.043  1.00  0.00     0.010 C 
ENDBRANCH  11  13
ENDBRANCH   1  11
BRANCH   8  21
ATOM     21  O   UNL     1      21.821   1.446  49.809  1.00  0.00    -0.487 OA
BRANCH  21  22
ATOM     22  C   UNL     1      22.102   1.763  48.465  1.00  0.00     0.258 C 
BRANCH  22  23
ATOM     23  C   UNL     1      21.025   2.719  47.930  1.00  0.00     0.201 C 
BRANCH  23  24
ATOM     24  O   UNL     1      19.810   2.327  48.494  1.00  0.00    -0.381 OA
ATOM     25  C   UNL     1      18.809   3.165  48.051  1.00  0.00     0.195 C 
ENDBRANCH  23  24
ENDBRANCH  22  23
ENDBRANCH  21  22
ENDBRANCH   8  21
BRANCH   7  26
ATOM     26  O   UNL     1      21.323   0.615  52.302  1.00  0.00    -0.487 OA
BRANCH  26  27
ATOM     27  C   UNL     1      20.308   1.316  52.947  1.00  0.00     0.258 C 
BRANCH  27  28
ATOM     28  C   UNL     1      19.427   2.151  52.065  1.00  0.00     0.201 C 
BRANCH  28  29
ATOM     29  O   UNL     1      19.519   3.501  52.365  1.00  0.00    -0.381 OA
ATOM     30  C   UNL     1      20.304   4.160  51.445  1.00  0.00     0.195 C 
ENDBRANCH  28  29
ENDBRANCH  27  28
ENDBRANCH  26  27
ENDBRANCH   7  26
TORSDOF 10
ENDMDL
MODEL 13
REMARK minimizedAffinity -6.89981174
REMARK minimizedRMSD -1
REMARK SMILES C#Cc1cccc(Nc2ncnc3cc(OCCOC)c(OCCOC)cc23)c1
REMARK SMILES IDX 9 1 10 2 11 3 12 4 13 5 14 6 15 7 21 8 27 9 28 10 8 11 7 13
REMARK SMILES IDX 2 14 3 15 4 16 29 17 5 18 6 19 1 20 22 21 23 22 24 23 25 24
REMARK SMILES IDX 26 25 16 26 17 27 18 28 19 29 20 30
REMARK H PARENT 8 12
ROOT
ATOM      1  C   UNL     1      25.882   4.045  49.663  1.00  0.00     0.141 A 
ATOM      2  N   UNL     1      24.586   4.322  49.859  1.00  0.00    -0.219 NA
ATOM      3  C   UNL     1      23.958   5.444  49.484  1.00  0.00     0.224 A 
ATOM      4  N   UNL     1      24.668   6.395  48.854  1.00  0.00    -0.236 NA
ATOM      5  C   UNL     1      25.973   6.196  48.619  1.00  0.00     0.080 A 
ATOM      6  C   UNL     1      26.674   7.204  47.966  1.00  0.00     0.079 A 
ATOM      7  C   UNL     1      28.011   7.119  47.670  1.00  0.00     0.163 A 
ATOM      8  C   UNL     1      28.635   5.924  48.079  1.00  0.00     0.162 A 
ATOM      9  C   UNL     1      27.945   4.925  48.726  1.00  0.00     0.064 A 
ATOM     10  C   UNL     1      26.623   5.021  49.013  1.00  0.00     0.047 A 
ENDROOT
BRANCH   1  11
ATOM     11  N   UNL     1      26.512   2.843  50.076  1.00  0.00    -0.340 N 
ATOM     12  H   UNL     1      27.154   2.323  49.430  1.00  0.00     0.168 HD
BRANCH  11  13
ATOM     13  C   UNL     1      26.341   2.244  51.358  1.00  0.00     0.041 A 
ATOM     14  C   UNL     1      23.969   0.160  53.340  1.00  0.00    -0.070 C 
ATOM     15  C   UNL     1      25.142   0.938  52.979  1.00  0.00     0.026 A 
ATOM     16  C   UNL     1      26.131   1.089  53.909  1.00  0.00     0.017 A 
ATOM     17  C   UNL     1      25.232   1.506  51.708  1.00  0.00     0.043 A 
ATOM     18  C   UNL     1      27.259   1.828  53.577  1.00  0.00     0.003 A 
ATOM     19  C   UNL     1      27.323   2.378  52.318  1.00  0.00     0.026 A 
ATOM     20  C   UNL     1      22.992  -0.485  53.633  1.00  0.00     0.010 C 
ENDBRANCH  11  13
ENDBRANCH   1  11
BRANCH   8  21
ATOM     21  O   UNL     1      29.988   5.763  47.814  1.00  0.00    -0.487 OA
BRANCH  21  22
ATOM     22  C   UNL     1      30.924   5.967  48.847  1.00  0.00     0.258 C 
BRANCH  22  23
ATOM     23  C   UNL     1      32.250   5.284  48.477  1.00  0.00     0.201 C 
BRANCH  23  24
ATOM     24  O   UNL     1      31.931   4.065  47.877  1.00  0.00    -0.381 OA
ATOM     25  C   UNL     1      33.075   3.309  47.746  1.00  0.00     0.195 C 
ENDBRANCH  23  24
ENDBRANCH  22  23
ENDBRANCH  21  22
ENDBRANCH   8  21
BRANCH   7  26
ATOM     26  O   UNL     1      28.786   8.027  47.050  1.00  0.00    -0.487 OA
BRANCH  26  27
ATOM     27  C   UNL     1      28.933   9.365  47.406  1.00  0.00     0.258 C 
BRANCH  27  28
ATOM     28  C   UNL     1      30.331   9.805  47.732  1.00  0.00     0.201 C 
BRANCH  28  29
ATOM     29  O   UNL     1      30.447  10.243  49.041  1.00  0.00    -0.381 OA
ATOM     30  C   UNL     1      30.715  11.593  49.088  1.00  0.00     0.195 C 
ENDBRANCH  28  29
ENDBRANCH  27  28
ENDBRANCH  26  27
ENDBRANCH   7  26
TORSDOF 10
ENDMDL
MODEL 14
REMARK minimizedAffinity -6.86003971
REMARK minimizedRMSD -1
REMARK SMILES C#Cc1cccc(Nc2ncnc3cc(OCCOC)c(OCCOC)cc23)c1
REMARK SMILES IDX 9 1 10 2 11 3 12 4 13 5 14 6 15 7 21 8 27 9 28 10 8 11 7 13
REMARK SMILES IDX 2 14 3 15 4 16 29 17 5 18 6 19 1 20 22 21 23 22 24 23 25 24
REMARK SMILES IDX 26 25 16 26 17 27 18 28 19 29 20 30
REMARK H PARENT 8 12
ROOT
ATOM      1  C   UNL     1      24.269   3.360  51.253  1.00  0.00     0.141 A 
ATOM      2  N   UNL     1      23.253   3.476  52.119  1.00  0.00    -0.219 NA
ATOM      3  C   UNL     1      22.630   4.615  52.451  1.00  0.00     0.224 A 
ATOM      4  N   UNL     1      23.043   5.759  51.881  1.00  0.00    -0.236 NA
ATOM      5  C   UNL     1      24.056   5.731  51.004  1.00  0.00     0.080 A 
ATOM      6  C   UNL     1      24.455   6.936  50.436  1.00  0.00     0.079 A 
ATOM      7  C   UNL     1      25.478   7.037  49.528  1.00  0.00     0.163 A 
ATOM      8  C   UNL     1      26.107   5.818  49.204  1.00  0.00     0.162 A 
ATOM      9  C   UNL     1      25.714   4.624  49.763  1.00  0.00     0.064 A 
ATOM     10  C   UNL     1      24.702   4.537  50.660  1.00  0.00     0.047 A 
ENDROOT
BRANCH   1  11
ATOM     11  N   UNL     1      24.903   2.134  50.928  1.00  0.00    -0.340 N 
ATOM     12  H   UNL     1      25.104   1.882  49.930  1.00  0.00     0.168 HD
BRANCH  11  13
ATOM     13  C   UNL     1      25.312   1.160  51.885  1.00  0.00     0.041 A 
ATOM     14  C   UNL     1      28.347  -0.452  53.329  1.00  0.00    -0.070 C 
ATOM     15  C   UNL     1      26.954  -0.118  53.085  1.00  0.00     0.026 A 
ATOM     16  C   UNL     1      25.995  -0.758  53.818  1.00  0.00     0.017 A 
ATOM     17  C   UNL     1      26.630   0.837  52.122  1.00  0.00     0.043 A 
ATOM     18  C   UNL     1      24.660  -0.447  53.596  1.00  0.00     0.003 A 
ATOM     19  C   UNL     1      24.368   0.497  52.640  1.00  0.00     0.026 A 
ATOM     20  C   UNL     1      29.505  -0.725  53.528  1.00  0.00     0.010 C 
ENDBRANCH  11  13
ENDBRANCH   1  11
BRANCH   8  21
ATOM     21  O   UNL     1      27.151   5.837  48.289  1.00  0.00    -0.487 OA
BRANCH  21  22
ATOM     22  C   UNL     1      28.328   5.115  48.569  1.00  0.00     0.258 C 
BRANCH  22  23
ATOM     23  C   UNL     1      29.538   5.873  48.003  1.00  0.00     0.201 C 
BRANCH  23  24
ATOM     24  O   UNL     1      30.675   5.125  48.314  1.00  0.00    -0.381 OA
ATOM     25  C   UNL     1      31.502   5.868  49.127  1.00  0.00     0.195 C 
ENDBRANCH  23  24
ENDBRANCH  22  23
ENDBRANCH  21  22
ENDBRANCH   8  21
BRANCH   7  26
ATOM     26  O   UNL     1      25.949   8.142  48.922  1.00  0.00    -0.487 OA
BRANCH  26  27
ATOM     27  C   UNL     1      26.273   9.346  49.541  1.00  0.00     0.258 C 
BRANCH  27  28
ATOM     28  C   UNL     1      27.710   9.511  49.939  1.00  0.00     0.201 C 
BRANCH  28  29
ATOM     29  O   UNL     1      28.577   9.187  48.908  1.00  0.00    -0.381 OA
ATOM     30  C   UNL     1      29.889   9.308  49.309  1.00  0.00     0.195 C 
ENDBRANCH  28  29
ENDBRANCH  27  28
ENDBRANCH  26  27
ENDBRANCH   7  26
TORSDOF 10
ENDMDL
MODEL 15
REMARK minimizedAffinity -6.84710789
REMARK minimizedRMSD -1
REMARK SMILES C#Cc1cccc(Nc2ncnc3cc(OCCOC)c(OCCOC)cc23)c1
REMARK SMILES IDX 9 1 10 2 11 3 12 4 13 5 14 6 15 7 21 8 27 9 28 10 8 11 7 13
REMARK SMILES IDX 2 14 3 15 4 16 29 17 5 18 6 19 1 20 22 21 23 22 24 23 25 24
REMARK SMILES IDX 26 25 16 26 17 27 18 28 19 29 20 30
REMARK H PARENT 8 12
ROOT
ATOM      1  C   UNL     1      24.509   4.787  50.311  1.00  0.00     0.141 A 
ATOM      2  N   UNL     1      23.467   5.176  51.060  1.00  0.00    -0.219 NA
ATOM      3  C   UNL     1      23.181   6.437  51.411  1.00  0.00     0.224 A 
ATOM      4  N   UNL     1      23.995   7.419  50.991  1.00  0.00    -0.236 NA
ATOM      5  C   UNL     1      25.062   7.114  50.237  1.00  0.00     0.080 A 
ATOM      6  C   UNL     1      25.881   8.158  49.823  1.00  0.00     0.079 A 
ATOM      7  C   UNL     1      27.000   7.974  49.051  1.00  0.00     0.163 A 
ATOM      8  C   UNL     1      27.267   6.635  48.701  1.00  0.00     0.162 A 
ATOM      9  C   UNL     1      26.458   5.600  49.110  1.00  0.00     0.064 A 
ATOM     10  C   UNL     1      25.355   5.794  49.873  1.00  0.00     0.047 A 
ENDROOT
BRANCH   1  11
ATOM     11  N   UNL     1      24.779   3.440  49.960  1.00  0.00    -0.340 N 
ATOM     12  H   UNL     1      24.746   3.128  48.960  1.00  0.00     0.168 HD
BRANCH  11  13
ATOM     13  C   UNL     1      25.107   2.414  50.895  1.00  0.00     0.041 A 
ATOM     14  C   UNL     1      23.558  -0.091  53.179  1.00  0.00    -0.070 C 
ATOM     15  C   UNL     1      24.562   0.681  52.466  1.00  0.00     0.026 A 
ATOM     16  C   UNL     1      25.879   0.400  52.692  1.00  0.00     0.017 A 
ATOM     17  C   UNL     1      24.163   1.678  51.576  1.00  0.00     0.043 A 
ATOM     18  C   UNL     1      26.848   1.129  52.016  1.00  0.00     0.003 A 
ATOM     19  C   UNL     1      26.428   2.107  51.145  1.00  0.00     0.026 A 
ATOM     20  C   UNL     1      22.721  -0.730  53.767  1.00  0.00     0.010 C 
ENDBRANCH  11  13
ENDBRANCH   1  11
BRANCH   8  21
ATOM     21  O   UNL     1      28.382   6.368  47.919  1.00  0.00    -0.487 OA
BRANCH  21  22
ATOM     22  C   UNL     1      29.245   5.315  48.283  1.00  0.00     0.258 C 
BRANCH  22  23
ATOM     23  C   UNL     1      30.673   5.643  47.822  1.00  0.00     0.201 C 
BRANCH  23  24
ATOM     24  O   UNL     1      31.547   5.021  48.714  1.00  0.00    -0.381 OA
ATOM     25  C   UNL     1      32.483   5.933  49.149  1.00  0.00     0.195 C 
ENDBRANCH  23  24
ENDBRANCH  22  23
ENDBRANCH  21  22
ENDBRANCH   8  21
BRANCH   7  26
ATOM     26  O   UNL     1      27.862   8.903  48.599  1.00  0.00    -0.487 OA
BRANCH  26  27
ATOM     27  C   UNL     1      28.817   9.578  49.354  1.00  0.00     0.258 C 
BRANCH  27  28
ATOM     28  C   UNL     1      30.245   9.205  49.087  1.00  0.00     0.201 C 
BRANCH  28  29
ATOM     29  O   UNL     1      31.071  10.316  49.022  1.00  0.00    -0.381 OA
ATOM     30  C   UNL     1      30.338  11.466  48.827  1.00  0.00     0.195 C 
ENDBRANCH  28  29
ENDBRANCH  27  28
ENDBRANCH  26  27
ENDBRANCH   7  26
TORSDOF 10
ENDMDL
MODEL 16
REMARK minimizedAffinity -6.76108503
REMARK minimizedRMSD -1
REMARK SMILES C#Cc1cccc(Nc2ncnc3cc(OCCOC)c(OCCOC)cc23)c1
REMARK SMILES IDX 9 1 10 2 11 3 12 4 13 5 14 6 15 7 21 8 27 9 28 10 8 11 7 13
REMARK SMILES IDX 2 14 3 15 4 16 29 17 5 18 6 19 1 20 22 21 23 22 24 23 25 24
REMARK SMILES IDX 26 25 16 26 17 27 18 28 19 29 20 30
REMARK H PARENT 8 12
ROOT
ATOM      1  C   UNL     1      21.350   0.673  53.513  1.00  0.00     0.141 A 
ATOM      2  N   UNL     1      21.062  -0.264  54.428  1.00  0.00    -0.219 NA
ATOM      3  C   UNL     1      21.927  -1.143  54.951  1.00  0.00     0.224 A 
ATOM      4  N   UNL     1      23.205  -1.105  54.539  1.00  0.00    -0.236 NA
ATOM      5  C   UNL     1      23.577  -0.198  53.624  1.00  0.00     0.080 A 
ATOM      6  C   UNL     1      24.908  -0.191  53.222  1.00  0.00     0.079 A 
ATOM      7  C   UNL     1      25.408   0.687  52.294  1.00  0.00     0.163 A 
ATOM      8  C   UNL     1      24.468   1.595  51.768  1.00  0.00     0.162 A 
ATOM      9  C   UNL     1      23.150   1.592  52.164  1.00  0.00     0.064 A 
ATOM     10  C   UNL     1      22.667   0.718  53.082  1.00  0.00     0.047 A 
ENDROOT
BRANCH   1  11
ATOM     11  N   UNL     1      20.404   1.586  52.982  1.00  0.00    -0.340 N 
ATOM     12  H   UNL     1      20.349   2.571  53.339  1.00  0.00     0.168 HD
BRANCH  11  13
ATOM     13  C   UNL     1      19.469   1.270  51.954  1.00  0.00     0.041 A 
ATOM     14  C   UNL     1      18.112   2.536  48.721  1.00  0.00    -0.070 C 
ATOM     15  C   UNL     1      18.331   1.687  49.880  1.00  0.00     0.026 A 
ATOM     16  C   UNL     1      17.618   0.526  49.978  1.00  0.00     0.017 A 
ATOM     17  C   UNL     1      19.254   2.069  50.853  1.00  0.00     0.043 A 
ATOM     18  C   UNL     1      17.819  -0.295  51.079  1.00  0.00     0.003 A 
ATOM     19  C   UNL     1      18.734   0.105  52.025  1.00  0.00     0.026 A 
ATOM     20  C   UNL     1      17.935   3.244  47.761  1.00  0.00     0.010 C 
ENDBRANCH  11  13
ENDBRANCH   1  11
BRANCH   8  21
ATOM     21  O   UNL     1      24.899   2.517  50.825  1.00  0.00    -0.487 OA
BRANCH  21  22
ATOM     22  C   UNL     1      24.177   3.715  50.649  1.00  0.00     0.258 C 
BRANCH  22  23
ATOM     23  C   UNL     1      23.700   3.814  49.192  1.00  0.00     0.201 C 
BRANCH  23  24
ATOM     24  O   UNL     1      22.402   3.301  49.149  1.00  0.00    -0.381 OA
ATOM     25  C   UNL     1      22.362   2.233  48.279  1.00  0.00     0.195 C 
ENDBRANCH  23  24
ENDBRANCH  22  23
ENDBRANCH  21  22
ENDBRANCH   8  21
BRANCH   7  26
ATOM     26  O   UNL     1      26.667   0.780  51.830  1.00  0.00    -0.487 OA
BRANCH  26  27
ATOM     27  C   UNL     1      27.833   0.646  52.578  1.00  0.00     0.258 C 
BRANCH  27  28
ATOM     28  C   UNL     1      28.252   1.858  53.359  1.00  0.00     0.201 C 
BRANCH  28  29
ATOM     29  O   UNL     1      28.479   1.566  54.694  1.00  0.00    -0.381 OA
ATOM     30  C   UNL     1      28.465   0.206  54.911  1.00  0.00     0.195 C 
ENDBRANCH  28  29
ENDBRANCH  27  28
ENDBRANCH  26  27
ENDBRANCH   7  26
TORSDOF 10
ENDMDL
MODEL 17
REMARK minimizedAffinity -6.75502205
REMARK minimizedRMSD -1
REMARK SMILES C#Cc1cccc(Nc2ncnc3cc(OCCOC)c(OCCOC)cc23)c1
REMARK SMILES IDX 9 1 10 2 11 3 12 4 13 5 14 6 15 7 21 8 27 9 28 10 8 11 7 13
REMARK SMILES IDX 2 14 3 15 4 16 29 17 5 18 6 19 1 20 22 21 23 22 24 23 25 24
REMARK SMILES IDX 26 25 16 26 17 27 18 28 19 29 20 30
REMARK H PARENT 8 12
ROOT
ATOM      1  C   UNL     1      23.208   3.422  48.825  1.00  0.00     0.141 A 
ATOM      2  N   UNL     1      22.414   3.534  47.751  1.00  0.00    -0.219 NA
ATOM      3  C   UNL     1      21.323   2.797  47.500  1.00  0.00     0.224 A 
ATOM      4  N   UNL     1      20.973   1.851  48.387  1.00  0.00    -0.236 NA
ATOM      5  C   UNL     1      21.716   1.672  49.489  1.00  0.00     0.080 A 
ATOM      6  C   UNL     1      21.321   0.683  50.382  1.00  0.00     0.079 A 
ATOM      7  C   UNL     1      21.998   0.405  51.543  1.00  0.00     0.163 A 
ATOM      8  C   UNL     1      23.137   1.202  51.772  1.00  0.00     0.162 A 
ATOM      9  C   UNL     1      23.530   2.182  50.890  1.00  0.00     0.064 A 
ATOM     10  C   UNL     1      22.853   2.447  49.746  1.00  0.00     0.047 A 
ENDROOT
BRANCH   1  11
ATOM     11  N   UNL     1      24.355   4.223  49.055  1.00  0.00    -0.340 N 
ATOM     12  H   UNL     1      25.316   3.857  48.848  1.00  0.00     0.168 HD
BRANCH  11  13
ATOM     13  C   UNL     1      24.320   5.550  49.573  1.00  0.00     0.041 A 
ATOM     14  C   UNL     1      26.468   8.541  50.152  1.00  0.00    -0.070 C 
ATOM     15  C   UNL     1      25.303   7.673  50.119  1.00  0.00     0.026 A 
ATOM     16  C   UNL     1      24.118   8.159  50.593  1.00  0.00     0.017 A 
ATOM     17  C   UNL     1      25.418   6.380  49.609  1.00  0.00     0.043 A 
ATOM     18  C   UNL     1      22.997   7.340  50.565  1.00  0.00     0.003 A 
ATOM     19  C   UNL     1      23.138   6.069  50.058  1.00  0.00     0.026 A 
ATOM     20  C   UNL     1      27.439   9.258  50.176  1.00  0.00     0.010 C 
ENDBRANCH  11  13
ENDBRANCH   1  11
BRANCH   8  21
ATOM     21  O   UNL     1      23.874   0.982  52.927  1.00  0.00    -0.487 OA
BRANCH  21  22
ATOM     22  C   UNL     1      25.281   0.952  52.853  1.00  0.00     0.258 C 
BRANCH  22  23
ATOM     23  C   UNL     1      25.859   2.119  53.669  1.00  0.00     0.201 C 
BRANCH  23  24
ATOM     24  O   UNL     1      26.856   1.593  54.491  1.00  0.00    -0.381 OA
ATOM     25  C   UNL     1      26.657   0.237  54.640  1.00  0.00     0.195 C 
ENDBRANCH  23  24
ENDBRANCH  22  23
ENDBRANCH  21  22
ENDBRANCH   8  21
BRANCH   7  26
ATOM     26  O   UNL     1      21.712  -0.526  52.471  1.00  0.00    -0.487 OA
BRANCH  26  27
ATOM     27  C   UNL     1      20.770  -0.412  53.490  1.00  0.00     0.258 C 
BRANCH  27  28
ATOM     28  C   UNL     1      21.316  -0.398  54.887  1.00  0.00     0.201 C 
BRANCH  28  29
ATOM     29  O   UNL     1      21.948  -1.588  55.212  1.00  0.00    -0.381 OA
ATOM     30  C   UNL     1      23.276  -1.377  55.506  1.00  0.00     0.195 C 
ENDBRANCH  28  29
ENDBRANCH  27  28
ENDBRANCH  26  27
ENDBRANCH   7  26
TORSDOF 10
ENDMDL
MODEL 18
REMARK minimizedAffinity -6.70483923
REMARK minimizedRMSD -1
REMARK SMILES C#Cc1cccc(Nc2ncnc3cc(OCCOC)c(OCCOC)cc23)c1
REMARK SMILES IDX 9 1 10 2 11 3 12 4 13 5 14 6 15 7 21 8 27 9 28 10 8 11 7 13
REMARK SMILES IDX 2 14 3 15 4 16 29 17 5 18 6 19 1 20 22 21 23 22 24 23 25 24
REMARK SMILES IDX 26 25 16 26 17 27 18 28 19 29 20 30
REMARK H PARENT 8 12
ROOT
ATOM      1  C   UNL     1      24.428   2.630  51.150  1.00  0.00     0.141 A 
ATOM      2  N   UNL     1      25.113   3.699  50.723  1.00  0.00    -0.219 NA
ATOM      3  C   UNL     1      24.619   4.934  50.558  1.00  0.00     0.224 A 
ATOM      4  N   UNL     1      23.323   5.147  50.837  1.00  0.00    -0.236 NA
ATOM      5  C   UNL     1      22.565   4.128  51.269  1.00  0.00     0.080 A 
ATOM      6  C   UNL     1      21.228   4.388  51.547  1.00  0.00     0.079 A 
ATOM      7  C   UNL     1      20.353   3.431  51.993  1.00  0.00     0.163 A 
ATOM      8  C   UNL     1      20.910   2.146  52.155  1.00  0.00     0.162 A 
ATOM      9  C   UNL     1      22.233   1.886  51.882  1.00  0.00     0.064 A 
ATOM     10  C   UNL     1      23.088   2.840  51.440  1.00  0.00     0.047 A 
ENDROOT
BRANCH   1  11
ATOM     11  N   UNL     1      24.987   1.337  51.311  1.00  0.00    -0.340 N 
ATOM     12  H   UNL     1      24.798   0.578  50.612  1.00  0.00     0.168 HD
BRANCH  11  13
ATOM     13  C   UNL     1      25.827   0.953  52.397  1.00  0.00     0.041 A 
ATOM     14  C   UNL     1      28.592  -1.380  53.296  1.00  0.00    -0.070 C 
ATOM     15  C   UNL     1      27.581  -0.342  53.406  1.00  0.00     0.026 A 
ATOM     16  C   UNL     1      27.441   0.303  54.601  1.00  0.00     0.017 A 
ATOM     17  C   UNL     1      26.786  -0.030  52.302  1.00  0.00     0.043 A 
ATOM     18  C   UNL     1      26.480   1.298  54.719  1.00  0.00     0.003 A 
ATOM     19  C   UNL     1      25.709   1.586  53.616  1.00  0.00     0.026 A 
ATOM     20  C   UNL     1      29.430  -2.243  53.198  1.00  0.00     0.010 C 
ENDBRANCH  11  13
ENDBRANCH   1  11
BRANCH   8  21
ATOM     21  O   UNL     1      20.088   1.123  52.606  1.00  0.00    -0.487 OA
BRANCH  21  22
ATOM     22  C   UNL     1      20.666  -0.023  53.186  1.00  0.00     0.258 C 
BRANCH  22  23
ATOM     23  C   UNL     1      20.812   0.189  54.701  1.00  0.00     0.201 C 
BRANCH  23  24
ATOM     24  O   UNL     1      21.623  -0.838  55.184  1.00  0.00    -0.381 OA
ATOM     25  C   UNL     1      21.650  -1.868  54.270  1.00  0.00     0.195 C 
ENDBRANCH  23  24
ENDBRANCH  22  23
ENDBRANCH  21  22
ENDBRANCH   8  21
BRANCH   7  26
ATOM     26  O   UNL     1      19.047   3.567  52.287  1.00  0.00    -0.487 OA
BRANCH  26  27
ATOM     27  C   UNL     1      18.006   3.693  51.371  1.00  0.00     0.258 C 
BRANCH  27  28
ATOM     28  C   UNL     1      17.319   2.417  50.983  1.00  0.00     0.201 C 
BRANCH  28  29
ATOM     29  O   UNL     1      17.937   1.799  49.908  1.00  0.00    -0.381 OA
ATOM     30  C   UNL     1      18.274   2.715  48.937  1.00  0.00     0.195 C 
ENDBRANCH  28  29
ENDBRANCH  27  28
ENDBRANCH  26  27
ENDBRANCH   7  26
TORSDOF 10
ENDMDL
MODEL 19
REMARK minimizedAffinity -6.62400675
REMARK minimizedRMSD -1
REMARK SMILES C#Cc1cccc(Nc2ncnc3cc(OCCOC)c(OCCOC)cc23)c1
REMARK SMILES IDX 9 1 10 2 11 3 12 4 13 5 14 6 15 7 21 8 27 9 28 10 8 11 7 13
REMARK SMILES IDX 2 14 3 15 4 16 29 17 5 18 6 19 1 20 22 21 23 22 24 23 25 24
REMARK SMILES IDX 26 25 16 26 17 27 18 28 19 29 20 30
REMARK H PARENT 8 12
ROOT
ATOM      1  C   UNL     1      24.314   1.650  52.452  1.00  0.00     0.141 A 
ATOM      2  N   UNL     1      25.198   0.712  52.819  1.00  0.00    -0.219 NA
ATOM      3  C   UNL     1      26.450   0.588  52.356  1.00  0.00     0.224 A 
ATOM      4  N   UNL     1      26.883   1.470  51.440  1.00  0.00    -0.236 NA
ATOM      5  C   UNL     1      26.060   2.441  51.018  1.00  0.00     0.080 A 
ATOM      6  C   UNL     1      26.545   3.334  50.069  1.00  0.00     0.079 A 
ATOM      7  C   UNL     1      25.800   4.367  49.559  1.00  0.00     0.163 A 
ATOM      8  C   UNL     1      24.491   4.464  50.071  1.00  0.00     0.162 A 
ATOM      9  C   UNL     1      24.008   3.583  51.011  1.00  0.00     0.064 A 
ATOM     10  C   UNL     1      24.753   2.565  51.506  1.00  0.00     0.047 A 
ENDROOT
BRANCH   1  11
ATOM     11  N   UNL     1      22.996   1.748  52.966  1.00  0.00    -0.340 N 
ATOM     12  H   UNL     1      22.524   2.679  53.060  1.00  0.00     0.168 HD
BRANCH  11  13
ATOM     13  C   UNL     1      22.213   0.635  53.390  1.00  0.00     0.041 A 
ATOM     14  C   UNL     1      18.804  -0.844  53.101  1.00  0.00    -0.070 C 
ATOM     15  C   UNL     1      20.195  -0.665  53.480  1.00  0.00     0.026 A 
ATOM     16  C   UNL     1      20.781  -1.615  54.267  1.00  0.00     0.017 A 
ATOM     17  C   UNL     1      20.894   0.458  53.037  1.00  0.00     0.043 A 
ATOM     18  C   UNL     1      22.110  -1.457  54.635  1.00  0.00     0.003 A 
ATOM     19  C   UNL     1      22.776  -0.341  54.185  1.00  0.00     0.026 A 
ATOM     20  C   UNL     1      17.648  -0.988  52.783  1.00  0.00     0.010 C 
ENDBRANCH  11  13
ENDBRANCH   1  11
BRANCH   8  21
ATOM     21  O   UNL     1      23.675   5.486  49.605  1.00  0.00    -0.487 OA
BRANCH  21  22
ATOM     22  C   UNL     1      22.307   5.232  49.385  1.00  0.00     0.258 C 
BRANCH  22  23
ATOM     23  C   UNL     1      22.109   4.714  47.952  1.00  0.00     0.201 C 
BRANCH  23  24
ATOM     24  O   UNL     1      21.474   3.475  48.045  1.00  0.00    -0.381 OA
ATOM     25  C   UNL     1      22.379   2.476  47.759  1.00  0.00     0.195 C 
ENDBRANCH  23  24
ENDBRANCH  22  23
ENDBRANCH  21  22
ENDBRANCH   8  21
BRANCH   7  26
ATOM     26  O   UNL     1      26.162   5.281  48.641  1.00  0.00    -0.487 OA
BRANCH  26  27
ATOM     27  C   UNL     1      27.051   6.335  48.833  1.00  0.00     0.258 C 
BRANCH  27  28
ATOM     28  C   UNL     1      28.332   6.260  48.055  1.00  0.00     0.201 C 
BRANCH  28  29
ATOM     29  O   UNL     1      29.215   5.338  48.592  1.00  0.00    -0.381 OA
ATOM     30  C   UNL     1      30.507   5.814  48.562  1.00  0.00     0.195 C 
ENDBRANCH  28  29
ENDBRANCH  27  28
ENDBRANCH  26  27
ENDBRANCH   7  26
TORSDOF 10
ENDMDL
MODEL 20
REMARK minimizedAffinity -6.56973934
REMARK minimizedRMSD -1
REMARK SMILES C#Cc1cccc(Nc2ncnc3cc(OCCOC)c(OCCOC)cc23)c1
REMARK SMILES IDX 9 1 10 2 11 3 12 4 13 5 14 6 15 7 21 8 27 9 28 10 8 11 7 13
REMARK SMILES IDX 2 14 3 15 4 16 29 17 5 18 6 19 1 20 22 21 23 22 24 23 25 24
REMARK SMILES IDX 26 25 16 26 17 27 18 28 19 29 20 30
REMARK H PARENT 8 12
ROOT
ATOM      1  C   UNL     1      27.147   5.923  48.661  1.00  0.00     0.141 A 
ATOM      2  N   UNL     1      26.481   6.905  48.037  1.00  0.00    -0.219 NA
ATOM      3  C   UNL     1      25.149   7.011  47.939  1.00  0.00     0.224 A 
ATOM      4  N   UNL     1      24.388   6.060  48.506  1.00  0.00    -0.236 NA
ATOM      5  C   UNL     1      24.976   5.041  49.150  1.00  0.00     0.080 A 
ATOM      6  C   UNL     1      24.155   4.077  49.723  1.00  0.00     0.079 A 
ATOM      7  C   UNL     1      24.636   2.988  50.405  1.00  0.00     0.163 A 
ATOM      8  C   UNL     1      26.041   2.913  50.487  1.00  0.00     0.162 A 
ATOM      9  C   UNL     1      26.857   3.866  49.922  1.00  0.00     0.064 A 
ATOM     10  C   UNL     1      26.369   4.937  49.249  1.00  0.00     0.047 A 
ENDROOT
BRANCH   1  11
ATOM     11  N   UNL     1      28.560   5.846  48.743  1.00  0.00    -0.340 N 
ATOM     12  H   UNL     1      29.028   5.032  49.211  1.00  0.00     0.168 HD
BRANCH  11  13
ATOM     13  C   UNL     1      29.452   6.828  48.221  1.00  0.00     0.041 A 
ATOM     14  C   UNL     1      30.557  10.355  48.708  1.00  0.00    -0.070 C 
ATOM     15  C   UNL     1      30.458   9.008  48.169  1.00  0.00     0.026 A 
ATOM     16  C   UNL     1      31.269   8.667  47.125  1.00  0.00     0.017 A 
ATOM     17  C   UNL     1      29.551   8.106  48.725  1.00  0.00     0.043 A 
ATOM     18  C   UNL     1      31.186   7.383  46.602  1.00  0.00     0.003 A 
ATOM     19  C   UNL     1      30.283   6.513  47.167  1.00  0.00     0.026 A 
ATOM     20  C   UNL     1      30.635  11.471  49.160  1.00  0.00     0.010 C 
ENDBRANCH  11  13
ENDBRANCH   1  11
BRANCH   8  21
ATOM     21  O   UNL     1      26.605   1.841  51.164  1.00  0.00    -0.487 OA
BRANCH  21  22
ATOM     22  C   UNL     1      27.202   2.055  52.423  1.00  0.00     0.258 C 
BRANCH  22  23
ATOM     23  C   UNL     1      26.791   0.927  53.381  1.00  0.00     0.201 C 
BRANCH  23  24
ATOM     24  O   UNL     1      27.441   1.159  54.594  1.00  0.00    -0.381 OA
ATOM     25  C   UNL     1      28.432   0.217  54.767  1.00  0.00     0.195 C 
ENDBRANCH  23  24
ENDBRANCH  22  23
ENDBRANCH  21  22
ENDBRANCH   8  21
BRANCH   7  26
ATOM     26  O   UNL     1      23.940   1.998  50.991  1.00  0.00    -0.487 OA
BRANCH  26  27
ATOM     27  C   UNL     1      23.328   2.049  52.240  1.00  0.00     0.258 C 
BRANCH  27  28
ATOM     28  C   UNL     1      22.586   0.812  52.655  1.00  0.00     0.201 C 
BRANCH  28  29
ATOM     29  O   UNL     1      23.355  -0.012  53.460  1.00  0.00    -0.381 OA
ATOM     30  C   UNL     1      22.562  -0.864  54.196  1.00  0.00     0.195 C 
ENDBRANCH  28  29
ENDBRANCH  27  28
ENDBRANCH  26  27
ENDBRANCH   7  26
TORSDOF 10
ENDMDL
