MODEL 1
REMARK minimizedAffinity -10.2211418
REMARK minimizedRMSD -1
REMARK SMILES COc1cc2c(Oc3ccc(NC(=O)C4(C(=O)Nc5ccc(F)cc5)CC4)cc3F)ccnc2cc1OCCCN1CCOCC1
REMARK SMILES IDX 7 1 6 2 3 3 4 4 36 5 5 6 35 7 34 8 31 9 33 10 32 11 2 12
REMARK SMILES IDX 1 13 37 14 38 15 39 16 40 17 41 18 42 19 46 20 43 21 45 22
REMARK SMILES IDX 44 23 8 24 9 25 29 26 10 27 28 28 11 29 30 30 12 31 13 32
REMARK SMILES IDX 14 33 15 35 26 36 27 37 16 38 17 39 18 40 19 42 20 43 25 44
REMARK SMILES IDX 21 45 24 46 22 47 23 48
REMARK H PARENT 12 34 18 41
ROOT
ATOM      1  O   UNL     1      27.076   6.940  47.667  1.00  0.00    -0.454 OA
ENDROOT
BRANCH   1   2
ATOM      2  C   UNL     1      27.861   7.839  48.357  1.00  0.00     0.138 A 
ATOM      3  C   UNL     1      31.225   7.555  46.707  1.00  0.00     0.161 A 
ATOM      4  C   UNL     1      29.880   7.319  46.993  1.00  0.00     0.064 A 
ATOM      5  C   UNL     1      31.928   8.511  47.459  1.00  0.00     0.163 A 
ATOM      6  C   UNL     1      29.218   8.024  48.024  1.00  0.00     0.047 A 
ATOM      7  C   UNL     1      31.266   9.205  48.477  1.00  0.00     0.079 A 
ATOM      8  C   UNL     1      29.924   8.987  48.767  1.00  0.00     0.078 A 
ATOM      9  C   UNL     1      27.246   8.628  49.322  1.00  0.00     0.068 A 
ATOM     10  N   UNL     1      29.348   9.717  49.739  1.00  0.00    -0.256 NA
ATOM     11  C   UNL     1      28.032   9.538  49.988  1.00  0.00     0.115 A 
BRANCH   3  12
ATOM     12  O   UNL     1      31.935   6.914  45.724  1.00  0.00    -0.493 OA
ATOM     13  C   UNL     1      31.796   7.387  44.392  1.00  0.00     0.278 C 
ENDBRANCH   3  12
BRANCH   5  14
ATOM     14  O   UNL     1      33.241   8.690  47.112  1.00  0.00    -0.490 OA
BRANCH  14  15
ATOM     15  C   UNL     1      34.260   8.616  48.105  1.00  0.00     0.231 C 
BRANCH  15  16
ATOM     16  C   UNL     1      35.054   7.310  48.014  1.00  0.00     0.057 C 
BRANCH  16  17
ATOM     17  C   UNL     1      34.297   6.142  48.664  1.00  0.00     0.088 C 
BRANCH  17  18
ATOM     18  N   UNL     1      33.882   5.047  47.780  1.00  0.00    -0.299 NA
ATOM     19  C   UNL     1      34.842   3.930  47.724  1.00  0.00     0.113 C 
ATOM     20  C   UNL     1      32.536   4.524  48.074  1.00  0.00     0.113 C 
ATOM     21  C   UNL     1      34.387   2.876  46.702  1.00  0.00     0.175 C 
ATOM     22  C   UNL     1      32.134   3.454  47.046  1.00  0.00     0.175 C 
ATOM     23  O   UNL     1      33.080   2.376  47.018  1.00  0.00    -0.379 OA
ENDBRANCH  17  18
ENDBRANCH  16  17
ENDBRANCH  15  16
ENDBRANCH  14  15
ENDBRANCH   5  14
ENDBRANCH   1   2
BRANCH   1  24
ATOM     24  C   UNL     1      26.411   5.990  48.410  1.00  0.00     0.163 A 
ATOM     25  C   UNL     1      25.064   6.065  48.760  1.00  0.00     0.052 A 
ATOM     26  C   UNL     1      27.138   4.855  48.769  1.00  0.00     0.167 A 
ATOM     27  C   UNL     1      24.462   5.014  49.467  1.00  0.00     0.030 A 
ATOM     28  C   UNL     1      26.546   3.812  49.478  1.00  0.00     0.069 A 
ATOM     29  C   UNL     1      25.195   3.881  49.827  1.00  0.00     0.044 A 
ATOM     30  F   UNL     1      28.436   4.757  48.449  1.00  0.00    -0.203 F 
BRANCH  29  31
ATOM     31  N   UNL     1      24.656   2.786  50.527  1.00  0.00    -0.325 N 
ATOM     32  C   UNL     1      24.286   2.740  51.855  1.00  0.00     0.240 C 
ATOM     33  O   UNL     1      24.322   3.640  52.681  1.00  0.00    -0.273 OA
ATOM     34  H   UNL     1      24.471   1.946  49.987  1.00  0.00     0.169 HD
BRANCH  32  35
ATOM     35  C   UNL     1      23.735   1.408  52.266  1.00  0.00     0.128 C 
ATOM     36  C   UNL     1      22.548   0.844  51.483  1.00  0.00     0.028 C 
ATOM     37  C   UNL     1      22.326   1.381  52.860  1.00  0.00     0.028 C 
BRANCH  35  38
ATOM     38  C   UNL     1      24.744   0.433  52.791  1.00  0.00     0.240 C 
ATOM     39  O   UNL     1      24.347  -0.562  53.383  1.00  0.00    -0.274 OA
ATOM     40  N   UNL     1      26.046   0.810  52.536  1.00  0.00    -0.325 N 
ATOM     41  H   UNL     1      26.166   1.697  52.057  1.00  0.00     0.169 HD
BRANCH  40  42
ATOM     42  C   UNL     1      27.224   0.139  52.913  1.00  0.00     0.041 A 
ATOM     43  C   UNL     1      27.417  -1.238  52.766  1.00  0.00     0.029 A 
ATOM     44  C   UNL     1      28.254   0.915  53.462  1.00  0.00     0.029 A 
ATOM     45  C   UNL     1      28.616  -1.831  53.174  1.00  0.00     0.041 A 
ATOM     46  C   UNL     1      29.452   0.322  53.867  1.00  0.00     0.041 A 
ATOM     47  C   UNL     1      29.622  -1.048  53.721  1.00  0.00     0.123 A 
ATOM     48  F   UNL     1      30.766  -1.618  54.119  1.00  0.00    -0.207 F 
ENDBRANCH  40  42
ENDBRANCH  35  38
ENDBRANCH  32  35
ENDBRANCH  29  31
ENDBRANCH   1  24
TORSDOF 12
ENDMDL
MODEL 2
REMARK minimizedAffinity -9.87561798
REMARK minimizedRMSD -1
REMARK SMILES COc1cc2c(Oc3ccc(NC(=O)C4(C(=O)Nc5ccc(F)cc5)CC4)cc3F)ccnc2cc1OCCCN1CCOCC1
REMARK SMILES IDX 7 1 6 2 3 3 4 4 36 5 5 6 35 7 34 8 31 9 33 10 32 11 2 12
REMARK SMILES IDX 1 13 37 14 38 15 39 16 40 17 41 18 42 19 46 20 43 21 45 22
REMARK SMILES IDX 44 23 8 24 9 25 29 26 10 27 28 28 11 29 30 30 12 31 13 32
REMARK SMILES IDX 14 33 15 35 26 36 27 37 16 38 17 39 18 40 19 42 20 43 25 44
REMARK SMILES IDX 21 45 24 46 22 47 23 48
REMARK H PARENT 12 34 18 41
ROOT
ATOM      1  O   UNL     1      27.035   7.657  47.328  1.00  0.00    -0.454 OA
ENDROOT
BRANCH   1   2
ATOM      2  C   UNL     1      27.844   8.673  47.788  1.00  0.00     0.138 A 
ATOM      3  C   UNL     1      31.176   7.969  46.200  1.00  0.00     0.161 A 
ATOM      4  C   UNL     1      29.832   7.827  46.548  1.00  0.00     0.064 A 
ATOM      5  C   UNL     1      31.905   9.057  46.708  1.00  0.00     0.163 A 
ATOM      6  C   UNL     1      29.198   8.756  47.403  1.00  0.00     0.047 A 
ATOM      7  C   UNL     1      31.269   9.973  47.553  1.00  0.00     0.079 A 
ATOM      8  C   UNL     1      29.930   9.848  47.902  1.00  0.00     0.078 A 
ATOM      9  C   UNL     1      27.256   9.669  48.559  1.00  0.00     0.068 A 
ATOM     10  N   UNL     1      29.379  10.788  48.693  1.00  0.00    -0.256 NA
ATOM     11  C   UNL     1      28.066  10.692  48.993  1.00  0.00     0.115 A 
BRANCH   3  12
ATOM     12  O   UNL     1      31.861   7.112  45.376  1.00  0.00    -0.493 OA
ATOM     13  C   UNL     1      31.854   7.387  43.982  1.00  0.00     0.278 C 
ENDBRANCH   3  12
BRANCH   5  14
ATOM     14  O   UNL     1      33.214   9.132  46.313  1.00  0.00    -0.490 OA
BRANCH  14  15
ATOM     15  C   UNL     1      34.219   9.535  47.237  1.00  0.00     0.231 C 
BRANCH  15  16
ATOM     16  C   UNL     1      35.183   8.394  47.571  1.00  0.00     0.057 C 
BRANCH  16  17
ATOM     17  C   UNL     1      34.570   7.415  48.584  1.00  0.00     0.088 C 
BRANCH  17  18
ATOM     18  N   UNL     1      33.946   6.203  48.041  1.00  0.00    -0.299 NA
ATOM     19  C   UNL     1      34.819   5.016  48.076  1.00  0.00     0.113 C 
ATOM     20  C   UNL     1      32.648   5.877  48.657  1.00  0.00     0.113 C 
ATOM     21  C   UNL     1      34.133   3.819  47.399  1.00  0.00     0.175 C 
ATOM     22  C   UNL     1      32.011   4.659  47.968  1.00  0.00     0.175 C 
ATOM     23  O   UNL     1      32.877   3.517  48.025  1.00  0.00    -0.379 OA
ENDBRANCH  17  18
ENDBRANCH  16  17
ENDBRANCH  15  16
ENDBRANCH  14  15
ENDBRANCH   5  14
ENDBRANCH   1   2
BRANCH   1  24
ATOM     24  C   UNL     1      26.500   6.807  48.271  1.00  0.00     0.163 A 
ATOM     25  C   UNL     1      25.285   7.019  48.921  1.00  0.00     0.052 A 
ATOM     26  C   UNL     1      27.205   5.632  48.528  1.00  0.00     0.167 A 
ATOM     27  C   UNL     1      24.794   6.063  49.821  1.00  0.00     0.030 A 
ATOM     28  C   UNL     1      26.725   4.683  49.427  1.00  0.00     0.069 A 
ATOM     29  C   UNL     1      25.506   4.889  50.078  1.00  0.00     0.044 A 
ATOM     30  F   UNL     1      28.378   5.404  47.920  1.00  0.00    -0.203 F 
BRANCH  29  31
ATOM     31  N   UNL     1      25.070   3.882  50.960  1.00  0.00    -0.325 N 
ATOM     32  C   UNL     1      24.112   2.919  50.725  1.00  0.00     0.240 C 
ATOM     33  O   UNL     1      23.470   2.724  49.703  1.00  0.00    -0.273 OA
ATOM     34  H   UNL     1      25.547   3.823  51.854  1.00  0.00     0.169 HD
BRANCH  32  35
ATOM     35  C   UNL     1      23.908   1.996  51.888  1.00  0.00     0.128 C 
ATOM     36  C   UNL     1      22.887   0.867  51.745  1.00  0.00     0.028 C 
ATOM     37  C   UNL     1      22.556   2.048  52.601  1.00  0.00     0.028 C 
BRANCH  35  38
ATOM     38  C   UNL     1      25.131   1.722  52.709  1.00  0.00     0.240 C 
ATOM     39  O   UNL     1      25.328   2.393  53.714  1.00  0.00    -0.274 OA
ATOM     40  N   UNL     1      25.916   0.713  52.191  1.00  0.00    -0.325 N 
ATOM     41  H   UNL     1      25.594   0.301  51.321  1.00  0.00     0.169 HD
BRANCH  40  42
ATOM     42  C   UNL     1      27.137   0.228  52.697  1.00  0.00     0.041 A 
ATOM     43  C   UNL     1      28.172   1.049  53.154  1.00  0.00     0.029 A 
ATOM     44  C   UNL     1      27.304  -1.163  52.740  1.00  0.00     0.029 A 
ATOM     45  C   UNL     1      29.360   0.489  53.635  1.00  0.00     0.041 A 
ATOM     46  C   UNL     1      28.490  -1.722  53.222  1.00  0.00     0.041 A 
ATOM     47  C   UNL     1      29.509  -0.890  53.664  1.00  0.00     0.123 A 
ATOM     48  F   UNL     1      30.650  -1.425  54.116  1.00  0.00    -0.207 F 
ENDBRANCH  40  42
ENDBRANCH  35  38
ENDBRANCH  32  35
ENDBRANCH  29  31
ENDBRANCH   1  24
TORSDOF 12
ENDMDL
MODEL 3
REMARK minimizedAffinity -9.74339771
REMARK minimizedRMSD -1
REMARK SMILES COc1cc2c(Oc3ccc(NC(=O)C4(C(=O)Nc5ccc(F)cc5)CC4)cc3F)ccnc2cc1OCCCN1CCOCC1
REMARK SMILES IDX 7 1 6 2 3 3 4 4 36 5 5 6 35 7 34 8 31 9 33 10 32 11 2 12
REMARK SMILES IDX 1 13 37 14 38 15 39 16 40 17 41 18 42 19 46 20 43 21 45 22
REMARK SMILES IDX 44 23 8 24 9 25 29 26 10 27 28 28 11 29 30 30 12 31 13 32
REMARK SMILES IDX 14 33 15 35 26 36 27 37 16 38 17 39 18 40 19 42 20 43 25 44
REMARK SMILES IDX 21 45 24 46 22 47 23 48
REMARK H PARENT 12 34 18 41
ROOT
ATOM      1  O   UNL     1      25.855   6.269  48.453  1.00  0.00    -0.454 OA
ENDROOT
BRANCH   1   2
ATOM      2  C   UNL     1      26.423   7.421  48.951  1.00  0.00     0.138 A 
ATOM      3  C   UNL     1      30.065   7.082  48.089  1.00  0.00     0.161 A 
ATOM      4  C   UNL     1      28.707   6.776  48.195  1.00  0.00     0.064 A 
ATOM      5  C   UNL     1      30.536   8.297  48.613  1.00  0.00     0.163 A 
ATOM      6  C   UNL     1      27.805   7.667  48.819  1.00  0.00     0.047 A 
ATOM      7  C   UNL     1      29.636   9.174  49.228  1.00  0.00     0.079 A 
ATOM      8  C   UNL     1      28.281   8.886  49.333  1.00  0.00     0.078 A 
ATOM      9  C   UNL     1      25.574   8.378  49.495  1.00  0.00     0.068 A 
ATOM     10  N   UNL     1      27.472   9.794  49.909  1.00  0.00    -0.256 NA
ATOM     11  C   UNL     1      26.148   9.536  49.968  1.00  0.00     0.115 A 
BRANCH   3  12
ATOM     12  O   UNL     1      31.001   6.272  47.498  1.00  0.00    -0.493 OA
ATOM     13  C   UNL     1      30.912   4.874  47.737  1.00  0.00     0.278 C 
ENDBRANCH   3  12
BRANCH   5  14
ATOM     14  O   UNL     1      31.878   8.528  48.462  1.00  0.00    -0.490 OA
BRANCH  14  15
ATOM     15  C   UNL     1      32.357   9.258  47.337  1.00  0.00     0.231 C 
BRANCH  15  16
ATOM     16  C   UNL     1      33.525   8.548  46.647  1.00  0.00     0.057 C 
BRANCH  16  17
ATOM     17  C   UNL     1      34.394   7.780  47.655  1.00  0.00     0.088 C 
BRANCH  17  18
ATOM     18  N   UNL     1      34.692   6.378  47.340  1.00  0.00    -0.299 NA
ATOM     19  C   UNL     1      34.396   5.444  48.441  1.00  0.00     0.113 C 
ATOM     20  C   UNL     1      34.049   5.898  46.104  1.00  0.00     0.113 C 
ATOM     21  C   UNL     1      34.830   4.017  48.072  1.00  0.00     0.175 C 
ATOM     22  C   UNL     1      34.489   4.460  45.787  1.00  0.00     0.175 C 
ATOM     23  O   UNL     1      34.182   3.571  46.871  1.00  0.00    -0.379 OA
ENDBRANCH  17  18
ENDBRANCH  16  17
ENDBRANCH  15  16
ENDBRANCH  14  15
ENDBRANCH   5  14
ENDBRANCH   1   2
BRANCH   1  24
ATOM     24  C   UNL     1      25.358   5.369  49.370  1.00  0.00     0.163 A 
ATOM     25  C   UNL     1      24.143   5.514  50.036  1.00  0.00     0.052 A 
ATOM     26  C   UNL     1      26.107   4.212  49.580  1.00  0.00     0.167 A 
ATOM     27  C   UNL     1      23.694   4.511  50.907  1.00  0.00     0.030 A 
ATOM     28  C   UNL     1      25.669   3.215  50.449  1.00  0.00     0.069 A 
ATOM     29  C   UNL     1      24.450   3.354  51.116  1.00  0.00     0.044 A 
ATOM     30  F   UNL     1      27.282   4.046  48.955  1.00  0.00    -0.203 F 
BRANCH  29  31
ATOM     31  N   UNL     1      24.058   2.303  51.966  1.00  0.00    -0.325 N 
ATOM     32  C   UNL     1      23.204   1.261  51.672  1.00  0.00     0.240 C 
ATOM     33  O   UNL     1      22.640   1.022  50.614  1.00  0.00    -0.273 OA
ATOM     34  H   UNL     1      24.488   2.276  52.886  1.00  0.00     0.169 HD
BRANCH  32  35
ATOM     35  C   UNL     1      23.021   0.311  52.816  1.00  0.00     0.128 C 
ATOM     36  C   UNL     1      21.810  -0.624  52.793  1.00  0.00     0.028 C 
ATOM     37  C   UNL     1      21.819   0.537  53.735  1.00  0.00     0.028 C 
BRANCH  35  38
ATOM     38  C   UNL     1      24.287  -0.214  53.422  1.00  0.00     0.240 C 
ATOM     39  O   UNL     1      24.234  -0.752  54.520  1.00  0.00    -0.274 OA
ATOM     40  N   UNL     1      25.396   0.002  52.631  1.00  0.00    -0.325 N 
ATOM     41  H   UNL     1      25.233   0.502  51.762  1.00  0.00     0.169 HD
BRANCH  40  42
ATOM     42  C   UNL     1      26.732  -0.339  52.913  1.00  0.00     0.041 A 
ATOM     43  C   UNL     1      27.250  -1.632  52.784  1.00  0.00     0.029 A 
ATOM     44  C   UNL     1      27.577   0.691  53.344  1.00  0.00     0.029 A 
ATOM     45  C   UNL     1      28.589  -1.891  53.093  1.00  0.00     0.041 A 
ATOM     46  C   UNL     1      28.916   0.433  53.650  1.00  0.00     0.041 A 
ATOM     47  C   UNL     1      29.409  -0.858  53.524  1.00  0.00     0.123 A 
ATOM     48  F   UNL     1      30.689  -1.109  53.828  1.00  0.00    -0.207 F 
ENDBRANCH  40  42
ENDBRANCH  35  38
ENDBRANCH  32  35
ENDBRANCH  29  31
ENDBRANCH   1  24
TORSDOF 12
ENDMDL
MODEL 4
REMARK minimizedAffinity -9.68181133
REMARK minimizedRMSD -1
REMARK SMILES COc1cc2c(Oc3ccc(NC(=O)C4(C(=O)Nc5ccc(F)cc5)CC4)cc3F)ccnc2cc1OCCCN1CCOCC1
REMARK SMILES IDX 7 1 6 2 3 3 4 4 36 5 5 6 35 7 34 8 31 9 33 10 32 11 2 12
REMARK SMILES IDX 1 13 37 14 38 15 39 16 40 17 41 18 42 19 46 20 43 21 45 22
REMARK SMILES IDX 44 23 8 24 9 25 29 26 10 27 28 28 11 29 30 30 12 31 13 32
REMARK SMILES IDX 14 33 15 35 26 36 27 37 16 38 17 39 18 40 19 42 20 43 25 44
REMARK SMILES IDX 21 45 24 46 22 47 23 48
REMARK H PARENT 12 34 18 41
ROOT
ATOM      1  O   UNL     1      27.041   6.891  47.795  1.00  0.00    -0.454 OA
ENDROOT
BRANCH   1   2
ATOM      2  C   UNL     1      27.830   7.798  48.469  1.00  0.00     0.138 A 
ATOM      3  C   UNL     1      31.334   6.841  47.506  1.00  0.00     0.161 A 
ATOM      4  C   UNL     1      29.940   6.817  47.580  1.00  0.00     0.064 A 
ATOM      5  C   UNL     1      32.041   7.824  48.218  1.00  0.00     0.163 A 
ATOM      6  C   UNL     1      29.235   7.763  48.358  1.00  0.00     0.047 A 
ATOM      7  C   UNL     1      31.335   8.757  48.984  1.00  0.00     0.079 A 
ATOM      8  C   UNL     1      29.948   8.750  49.061  1.00  0.00     0.078 A 
ATOM      9  C   UNL     1      27.192   8.809  49.179  1.00  0.00     0.068 A 
ATOM     10  N   UNL     1      29.338   9.700  49.794  1.00  0.00    -0.256 NA
ATOM     11  C   UNL     1      27.988   9.723  49.829  1.00  0.00     0.115 A 
BRANCH   3  12
ATOM     12  O   UNL     1      32.088   5.960  46.773  1.00  0.00    -0.493 OA
ATOM     13  C   UNL     1      32.156   4.614  47.221  1.00  0.00     0.278 C 
ENDBRANCH   3  12
BRANCH   5  14
ATOM     14  O   UNL     1      33.404   7.786  48.086  1.00  0.00    -0.490 OA
BRANCH  14  15
ATOM     15  C   UNL     1      34.097   8.880  47.495  1.00  0.00     0.231 C 
BRANCH  15  16
ATOM     16  C   UNL     1      33.606   9.170  46.074  1.00  0.00     0.057 C 
BRANCH  16  17
ATOM     17  C   UNL     1      33.269  10.657  45.884  1.00  0.00     0.088 C 
BRANCH  17  18
ATOM     18  N   UNL     1      31.847  11.013  45.835  1.00  0.00    -0.299 NA
ATOM     19  C   UNL     1      30.966   9.897  45.450  1.00  0.00     0.113 C 
ATOM     20  C   UNL     1      31.346  11.629  47.077  1.00  0.00     0.113 C 
ATOM     21  C   UNL     1      29.511  10.375  45.321  1.00  0.00     0.175 C 
ATOM     22  C   UNL     1      29.882  12.066  46.913  1.00  0.00     0.175 C 
ATOM     23  O   UNL     1      29.046  10.959  46.547  1.00  0.00    -0.379 OA
ENDBRANCH  17  18
ENDBRANCH  16  17
ENDBRANCH  15  16
ENDBRANCH  14  15
ENDBRANCH   5  14
ENDBRANCH   1   2
BRANCH   1  24
ATOM     24  C   UNL     1      26.392   5.941  48.553  1.00  0.00     0.163 A 
ATOM     25  C   UNL     1      25.085   6.066  49.022  1.00  0.00     0.052 A 
ATOM     26  C   UNL     1      27.085   4.756  48.798  1.00  0.00     0.167 A 
ATOM     27  C   UNL     1      24.491   5.014  49.733  1.00  0.00     0.030 A 
ATOM     28  C   UNL     1      26.502   3.711  49.511  1.00  0.00     0.069 A 
ATOM     29  C   UNL     1      25.191   3.830  49.979  1.00  0.00     0.044 A 
ATOM     30  F   UNL     1      28.345   4.610  48.362  1.00  0.00    -0.203 F 
BRANCH  29  31
ATOM     31  N   UNL     1      24.656   2.731  50.676  1.00  0.00    -0.325 N 
ATOM     32  C   UNL     1      24.312   2.671  52.011  1.00  0.00     0.240 C 
ATOM     33  O   UNL     1      24.374   3.560  52.848  1.00  0.00    -0.273 OA
ATOM     34  H   UNL     1      24.452   1.900  50.130  1.00  0.00     0.169 HD
BRANCH  32  35
ATOM     35  C   UNL     1      23.758   1.340  52.416  1.00  0.00     0.128 C 
ATOM     36  C   UNL     1      22.529   0.812  51.674  1.00  0.00     0.028 C 
ATOM     37  C   UNL     1      22.376   1.322  53.072  1.00  0.00     0.028 C 
BRANCH  35  38
ATOM     38  C   UNL     1      24.772   0.336  52.874  1.00  0.00     0.240 C 
ATOM     39  O   UNL     1      24.380  -0.709  53.375  1.00  0.00    -0.274 OA
ATOM     40  N   UNL     1      26.072   0.751  52.674  1.00  0.00    -0.325 N 
ATOM     41  H   UNL     1      26.188   1.676  52.273  1.00  0.00     0.169 HD
BRANCH  40  42
ATOM     42  C   UNL     1      27.254   0.065  53.013  1.00  0.00     0.041 A 
ATOM     43  C   UNL     1      27.443  -1.306  52.816  1.00  0.00     0.029 A 
ATOM     44  C   UNL     1      28.291   0.820  53.577  1.00  0.00     0.029 A 
ATOM     45  C   UNL     1      28.646  -1.915  53.188  1.00  0.00     0.041 A 
ATOM     46  C   UNL     1      29.494   0.212  53.946  1.00  0.00     0.041 A 
ATOM     47  C   UNL     1      29.659  -1.152  53.751  1.00  0.00     0.123 A 
ATOM     48  F   UNL     1      30.807  -1.737  54.115  1.00  0.00    -0.207 F 
ENDBRANCH  40  42
ENDBRANCH  35  38
ENDBRANCH  32  35
ENDBRANCH  29  31
ENDBRANCH   1  24
TORSDOF 12
ENDMDL
MODEL 5
REMARK minimizedAffinity -9.56355667
REMARK minimizedRMSD -1
REMARK SMILES COc1cc2c(Oc3ccc(NC(=O)C4(C(=O)Nc5ccc(F)cc5)CC4)cc3F)ccnc2cc1OCCCN1CCOCC1
REMARK SMILES IDX 7 1 6 2 3 3 4 4 36 5 5 6 35 7 34 8 31 9 33 10 32 11 2 12
REMARK SMILES IDX 1 13 37 14 38 15 39 16 40 17 41 18 42 19 46 20 43 21 45 22
REMARK SMILES IDX 44 23 8 24 9 25 29 26 10 27 28 28 11 29 30 30 12 31 13 32
REMARK SMILES IDX 14 33 15 35 26 36 27 37 16 38 17 39 18 40 19 42 20 43 25 44
REMARK SMILES IDX 21 45 24 46 22 47 23 48
REMARK H PARENT 12 34 18 41
ROOT
ATOM      1  O   UNL     1      25.515   7.164  48.022  1.00  0.00    -0.454 OA
ENDROOT
BRANCH   1   2
ATOM      2  C   UNL     1      26.455   7.999  48.586  1.00  0.00     0.138 A 
ATOM      3  C   UNL     1      28.546   9.114  45.669  1.00  0.00     0.161 A 
ATOM      4  C   UNL     1      27.553   8.455  46.397  1.00  0.00     0.064 A 
ATOM      5  C   UNL     1      29.441   9.961  46.342  1.00  0.00     0.163 A 
ATOM      6  C   UNL     1      27.439   8.628  47.795  1.00  0.00     0.047 A 
ATOM      7  C   UNL     1      29.319  10.127  47.726  1.00  0.00     0.079 A 
ATOM      8  C   UNL     1      28.332   9.485  48.462  1.00  0.00     0.078 A 
ATOM      9  C   UNL     1      26.340   8.279  49.943  1.00  0.00     0.068 A 
ATOM     10  N   UNL     1      28.258   9.719  49.785  1.00  0.00    -0.256 NA
ATOM     11  C   UNL     1      27.269   9.133  50.492  1.00  0.00     0.115 A 
BRANCH   3  12
ATOM     12  O   UNL     1      28.720   8.999  44.313  1.00  0.00    -0.493 OA
ATOM     13  C   UNL     1      27.691   9.496  43.469  1.00  0.00     0.278 C 
ENDBRANCH   3  12
BRANCH   5  14
ATOM     14  O   UNL     1      30.380  10.577  45.557  1.00  0.00    -0.490 OA
BRANCH  14  15
ATOM     15  C   UNL     1      31.760  10.505  45.901  1.00  0.00     0.231 C 
BRANCH  15  16
ATOM     16  C   UNL     1      32.365   9.141  45.562  1.00  0.00     0.057 C 
BRANCH  16  17
ATOM     17  C   UNL     1      33.007   8.485  46.795  1.00  0.00     0.088 C 
BRANCH  17  18
ATOM     18  N   UNL     1      32.120   7.712  47.671  1.00  0.00    -0.299 NA
ATOM     19  C   UNL     1      31.201   6.816  46.947  1.00  0.00     0.113 C 
ATOM     20  C   UNL     1      32.831   6.950  48.712  1.00  0.00     0.113 C 
ATOM     21  C   UNL     1      30.239   6.122  47.925  1.00  0.00     0.175 C 
ATOM     22  C   UNL     1      31.834   6.251  49.650  1.00  0.00     0.175 C 
ATOM     23  O   UNL     1      30.958   5.379  48.921  1.00  0.00    -0.379 OA
ENDBRANCH  17  18
ENDBRANCH  16  17
ENDBRANCH  15  16
ENDBRANCH  14  15
ENDBRANCH   5  14
ENDBRANCH   1   2
BRANCH   1  24
ATOM     24  C   UNL     1      25.058   6.120  48.797  1.00  0.00     0.163 A 
ATOM     25  C   UNL     1      23.781   6.053  49.351  1.00  0.00     0.052 A 
ATOM     26  C   UNL     1      25.926   5.043  48.970  1.00  0.00     0.167 A 
ATOM     27  C   UNL     1      23.389   4.918  50.075  1.00  0.00     0.030 A 
ATOM     28  C   UNL     1      25.543   3.916  49.693  1.00  0.00     0.069 A 
ATOM     29  C   UNL     1      24.262   3.841  50.247  1.00  0.00     0.044 A 
ATOM     30  F   UNL     1      27.161   5.082  48.450  1.00  0.00    -0.203 F 
BRANCH  29  31
ATOM     31  N   UNL     1      23.934   2.668  50.952  1.00  0.00    -0.325 N 
ATOM     32  C   UNL     1      23.954   2.477  52.318  1.00  0.00     0.240 C 
ATOM     33  O   UNL     1      24.230   3.287  53.190  1.00  0.00    -0.273 OA
ATOM     34  H   UNL     1      23.597   1.885  50.400  1.00  0.00     0.169 HD
BRANCH  32  35
ATOM     35  C   UNL     1      23.531   1.098  52.724  1.00  0.00     0.128 C 
ATOM     36  C   UNL     1      22.398   0.430  51.944  1.00  0.00     0.028 C 
ATOM     37  C   UNL     1      22.134   0.938  53.326  1.00  0.00     0.028 C 
BRANCH  35  38
ATOM     38  C   UNL     1      24.629   0.217  53.239  1.00  0.00     0.240 C 
ATOM     39  O   UNL     1      24.342  -0.691  54.007  1.00  0.00    -0.274 OA
ATOM     40  N   UNL     1      25.875   0.574  52.767  1.00  0.00    -0.325 N 
ATOM     41  H   UNL     1      25.906   1.388  52.162  1.00  0.00     0.169 HD
BRANCH  40  42
ATOM     42  C   UNL     1      27.113  -0.023  53.073  1.00  0.00     0.041 A 
ATOM     43  C   UNL     1      27.426  -1.356  52.788  1.00  0.00     0.029 A 
ATOM     44  C   UNL     1      28.074   0.782  53.698  1.00  0.00     0.029 A 
ATOM     45  C   UNL     1      28.677  -1.877  53.133  1.00  0.00     0.041 A 
ATOM     46  C   UNL     1      29.324   0.262  54.040  1.00  0.00     0.041 A 
ATOM     47  C   UNL     1      29.614  -1.066  53.756  1.00  0.00     0.123 A 
ATOM     48  F   UNL     1      30.809  -1.568  54.093  1.00  0.00    -0.207 F 
ENDBRANCH  40  42
ENDBRANCH  35  38
ENDBRANCH  32  35
ENDBRANCH  29  31
ENDBRANCH   1  24
TORSDOF 12
ENDMDL
MODEL 6
REMARK minimizedAffinity -9.55237865
REMARK minimizedRMSD -1
REMARK SMILES COc1cc2c(Oc3ccc(NC(=O)C4(C(=O)Nc5ccc(F)cc5)CC4)cc3F)ccnc2cc1OCCCN1CCOCC1
REMARK SMILES IDX 7 1 6 2 3 3 4 4 36 5 5 6 35 7 34 8 31 9 33 10 32 11 2 12
REMARK SMILES IDX 1 13 37 14 38 15 39 16 40 17 41 18 42 19 46 20 43 21 45 22
REMARK SMILES IDX 44 23 8 24 9 25 29 26 10 27 28 28 11 29 30 30 12 31 13 32
REMARK SMILES IDX 14 33 15 35 26 36 27 37 16 38 17 39 18 40 19 42 20 43 25 44
REMARK SMILES IDX 21 45 24 46 22 47 23 48
REMARK H PARENT 12 34 18 41
ROOT
ATOM      1  O   UNL     1      25.512   5.827  48.678  1.00  0.00    -0.454 OA
ENDROOT
BRANCH   1   2
ATOM      2  C   UNL     1      26.016   7.028  49.128  1.00  0.00     0.138 A 
ATOM      3  C   UNL     1      29.583   7.011  47.945  1.00  0.00     0.161 A 
ATOM      4  C   UNL     1      28.273   6.586  48.169  1.00  0.00     0.064 A 
ATOM      5  C   UNL     1      29.989   8.265  48.430  1.00  0.00     0.163 A 
ATOM      6  C   UNL     1      27.354   7.395  48.875  1.00  0.00     0.047 A 
ATOM      7  C   UNL     1      29.073   9.061  49.125  1.00  0.00     0.079 A 
ATOM      8  C   UNL     1      27.763   8.654  49.349  1.00  0.00     0.078 A 
ATOM      9  C   UNL     1      25.138   7.907  49.750  1.00  0.00     0.068 A 
ATOM     10  N   UNL     1      26.931   9.488  49.999  1.00  0.00    -0.256 NA
ATOM     11  C   UNL     1      25.646   9.113  50.174  1.00  0.00     0.115 A 
BRANCH   3  12
ATOM     12  O   UNL     1      30.531   6.285  47.269  1.00  0.00    -0.493 OA
ATOM     13  C   UNL     1      31.148   5.203  47.953  1.00  0.00     0.278 C 
ENDBRANCH   3  12
BRANCH   5  14
ATOM     14  O   UNL     1      31.287   8.614  48.161  1.00  0.00    -0.490 OA
BRANCH  14  15
ATOM     15  C   UNL     1      31.591   9.423  47.029  1.00  0.00     0.231 C 
BRANCH  15  16
ATOM     16  C   UNL     1      31.880  10.873  47.422  1.00  0.00     0.057 C 
BRANCH  16  17
ATOM     17  C   UNL     1      31.086  11.863  46.556  1.00  0.00     0.088 C 
BRANCH  17  18
ATOM     18  N   UNL     1      29.842  12.394  47.126  1.00  0.00    -0.299 NA
ATOM     19  C   UNL     1      28.631  11.681  46.681  1.00  0.00     0.113 C 
ATOM     20  C   UNL     1      29.852  12.476  48.597  1.00  0.00     0.113 C 
ATOM     21  C   UNL     1      27.369  12.359  47.238  1.00  0.00     0.175 C 
ATOM     22  C   UNL     1      28.562  13.134  49.111  1.00  0.00     0.175 C 
ATOM     23  O   UNL     1      27.400  12.416  48.672  1.00  0.00    -0.379 OA
ENDBRANCH  17  18
ENDBRANCH  16  17
ENDBRANCH  15  16
ENDBRANCH  14  15
ENDBRANCH   5  14
ENDBRANCH   1   2
BRANCH   1  24
ATOM     24  C   UNL     1      25.067   4.938  49.632  1.00  0.00     0.163 A 
ATOM     25  C   UNL     1      23.846   5.043  50.297  1.00  0.00     0.052 A 
ATOM     26  C   UNL     1      25.879   3.833  49.885  1.00  0.00     0.167 A 
ATOM     27  C   UNL     1      23.455   4.051  51.207  1.00  0.00     0.030 A 
ATOM     28  C   UNL     1      25.498   2.849  50.794  1.00  0.00     0.069 A 
ATOM     29  C   UNL     1      24.273   2.947  51.459  1.00  0.00     0.044 A 
ATOM     30  F   UNL     1      27.060   3.708  49.262  1.00  0.00    -0.203 F 
BRANCH  29  31
ATOM     31  N   UNL     1      23.942   1.910  52.351  1.00  0.00    -0.325 N 
ATOM     32  C   UNL     1      23.041   0.886  52.149  1.00  0.00     0.240 C 
ATOM     33  O   UNL     1      22.373   0.653  51.152  1.00  0.00    -0.273 OA
ATOM     34  H   UNL     1      24.457   1.880  53.226  1.00  0.00     0.169 HD
BRANCH  32  35
ATOM     35  C   UNL     1      22.947  -0.053  53.312  1.00  0.00     0.128 C 
ATOM     36  C   UNL     1      21.812  -1.078  53.325  1.00  0.00     0.028 C 
ATOM     37  C   UNL     1      21.744   0.098  54.245  1.00  0.00     0.028 C 
BRANCH  35  38
ATOM     38  C   UNL     1      24.258  -0.466  53.910  1.00  0.00     0.240 C 
ATOM     39  O   UNL     1      24.263  -0.972  55.024  1.00  0.00    -0.274 OA
ATOM     40  N   UNL     1      25.335  -0.196  53.092  1.00  0.00    -0.325 N 
ATOM     41  H   UNL     1      25.121   0.264  52.212  1.00  0.00     0.169 HD
BRANCH  40  42
ATOM     42  C   UNL     1      26.697  -0.430  53.358  1.00  0.00     0.041 A 
ATOM     43  C   UNL     1      27.491   0.404  54.151  1.00  0.00     0.029 A 
ATOM     44  C   UNL     1      27.272  -1.574  52.788  1.00  0.00     0.029 A 
ATOM     45  C   UNL     1      28.841   0.105  54.361  1.00  0.00     0.041 A 
ATOM     46  C   UNL     1      28.620  -1.874  53.000  1.00  0.00     0.041 A 
ATOM     47  C   UNL     1      29.394  -1.028  53.784  1.00  0.00     0.123 A 
ATOM     48  F   UNL     1      30.688  -1.309  53.978  1.00  0.00    -0.207 F 
ENDBRANCH  40  42
ENDBRANCH  35  38
ENDBRANCH  32  35
ENDBRANCH  29  31
ENDBRANCH   1  24
TORSDOF 12
ENDMDL
MODEL 7
REMARK minimizedAffinity -9.41872406
REMARK minimizedRMSD -1
REMARK SMILES COc1cc2c(Oc3ccc(NC(=O)C4(C(=O)Nc5ccc(F)cc5)CC4)cc3F)ccnc2cc1OCCCN1CCOCC1
REMARK SMILES IDX 7 1 6 2 3 3 4 4 36 5 5 6 35 7 34 8 31 9 33 10 32 11 2 12
REMARK SMILES IDX 1 13 37 14 38 15 39 16 40 17 41 18 42 19 46 20 43 21 45 22
REMARK SMILES IDX 44 23 8 24 9 25 29 26 10 27 28 28 11 29 30 30 12 31 13 32
REMARK SMILES IDX 14 33 15 35 26 36 27 37 16 38 17 39 18 40 19 42 20 43 25 44
REMARK SMILES IDX 21 45 24 46 22 47 23 48
REMARK H PARENT 12 34 18 41
ROOT
ATOM      1  O   UNL     1      25.901   8.274  49.394  1.00  0.00    -0.454 OA
ENDROOT
BRANCH   1   2
ATOM      2  C   UNL     1      26.259   8.516  48.085  1.00  0.00     0.138 A 
ATOM      3  C   UNL     1      30.011   8.698  48.192  1.00  0.00     0.161 A 
ATOM      4  C   UNL     1      28.691   8.564  48.625  1.00  0.00     0.064 A 
ATOM      5  C   UNL     1      30.266   8.922  46.829  1.00  0.00     0.163 A 
ATOM      6  C   UNL     1      27.613   8.650  47.715  1.00  0.00     0.047 A 
ATOM      7  C   UNL     1      29.194   9.004  45.935  1.00  0.00     0.079 A 
ATOM      8  C   UNL     1      27.875   8.865  46.350  1.00  0.00     0.078 A 
ATOM      9  C   UNL     1      25.251   8.522  47.129  1.00  0.00     0.068 A 
ATOM     10  N   UNL     1      26.899   8.924  45.426  1.00  0.00    -0.256 NA
ATOM     11  C   UNL     1      25.621   8.740  45.822  1.00  0.00     0.115 A 
BRANCH   3  12
ATOM     12  O   UNL     1      31.109   8.625  49.012  1.00  0.00    -0.493 OA
ATOM     13  C   UNL     1      31.559   7.336  49.402  1.00  0.00     0.278 C 
ENDBRANCH   3  12
BRANCH   5  14
ATOM     14  O   UNL     1      31.587   9.034  46.484  1.00  0.00    -0.490 OA
BRANCH  14  15
ATOM     15  C   UNL     1      32.058   8.472  45.262  1.00  0.00     0.231 C 
BRANCH  15  16
ATOM     16  C   UNL     1      32.242   6.956  45.362  1.00  0.00     0.057 C 
BRANCH  16  17
ATOM     17  C   UNL     1      33.407   6.588  46.294  1.00  0.00     0.088 C 
BRANCH  17  18
ATOM     18  N   UNL     1      33.644   5.159  46.528  1.00  0.00    -0.299 NA
ATOM     19  C   UNL     1      34.482   4.879  47.707  1.00  0.00     0.113 C 
ATOM     20  C   UNL     1      32.410   4.358  46.600  1.00  0.00     0.113 C 
ATOM     21  C   UNL     1      34.768   3.373  47.823  1.00  0.00     0.175 C 
ATOM     22  C   UNL     1      32.741   2.864  46.743  1.00  0.00     0.175 C 
ATOM     23  O   UNL     1      33.550   2.618  47.902  1.00  0.00    -0.379 OA
ENDBRANCH  17  18
ENDBRANCH  16  17
ENDBRANCH  15  16
ENDBRANCH  14  15
ENDBRANCH   5  14
ENDBRANCH   1   2
BRANCH   1  24
ATOM     24  C   UNL     1      25.554   6.981  49.719  1.00  0.00     0.163 A 
ATOM     25  C   UNL     1      26.227   5.848  49.264  1.00  0.00     0.052 A 
ATOM     26  C   UNL     1      24.499   6.823  50.616  1.00  0.00     0.167 A 
ATOM     27  C   UNL     1      25.835   4.575  49.703  1.00  0.00     0.030 A 
ATOM     28  C   UNL     1      24.101   5.560  51.049  1.00  0.00     0.069 A 
ATOM     29  C   UNL     1      24.775   4.422  50.599  1.00  0.00     0.044 A 
ATOM     30  F   UNL     1      23.832   7.895  51.068  1.00  0.00    -0.203 F 
BRANCH  29  31
ATOM     31  N   UNL     1      24.334   3.178  51.089  1.00  0.00    -0.325 N 
ATOM     32  C   UNL     1      24.196   2.797  52.408  1.00  0.00     0.240 C 
ATOM     33  O   UNL     1      24.400   3.464  53.412  1.00  0.00    -0.273 OA
ATOM     34  H   UNL     1      24.034   2.497  50.399  1.00  0.00     0.169 HD
BRANCH  32  35
ATOM     35  C   UNL     1      23.687   1.398  52.565  1.00  0.00     0.128 C 
ATOM     36  C   UNL     1      22.595   0.914  51.610  1.00  0.00     0.028 C 
ATOM     37  C   UNL     1      22.240   1.221  53.030  1.00  0.00     0.028 C 
BRANCH  35  38
ATOM     38  C   UNL     1      24.703   0.394  53.019  1.00  0.00     0.240 C 
ATOM     39  O   UNL     1      24.316  -0.618  53.589  1.00  0.00    -0.274 OA
ATOM     40  N   UNL     1      25.999   0.767  52.732  1.00  0.00    -0.325 N 
ATOM     41  H   UNL     1      26.112   1.670  52.280  1.00  0.00     0.169 HD
BRANCH  40  42
ATOM     42  C   UNL     1      27.183   0.072  53.042  1.00  0.00     0.041 A 
ATOM     43  C   UNL     1      27.373  -1.291  52.794  1.00  0.00     0.029 A 
ATOM     44  C   UNL     1      28.220   0.806  53.631  1.00  0.00     0.029 A 
ATOM     45  C   UNL     1      28.578  -1.911  53.141  1.00  0.00     0.041 A 
ATOM     46  C   UNL     1      29.425   0.187  53.974  1.00  0.00     0.041 A 
ATOM     47  C   UNL     1      29.591  -1.168  53.728  1.00  0.00     0.123 A 
ATOM     48  F   UNL     1      30.741  -1.765  54.067  1.00  0.00    -0.207 F 
ENDBRANCH  40  42
ENDBRANCH  35  38
ENDBRANCH  32  35
ENDBRANCH  29  31
ENDBRANCH   1  24
TORSDOF 12
ENDMDL
MODEL 8
REMARK minimizedAffinity -9.40958309
REMARK minimizedRMSD -1
REMARK SMILES COc1cc2c(Oc3ccc(NC(=O)C4(C(=O)Nc5ccc(F)cc5)CC4)cc3F)ccnc2cc1OCCCN1CCOCC1
REMARK SMILES IDX 7 1 6 2 3 3 4 4 36 5 5 6 35 7 34 8 31 9 33 10 32 11 2 12
REMARK SMILES IDX 1 13 37 14 38 15 39 16 40 17 41 18 42 19 46 20 43 21 45 22
REMARK SMILES IDX 44 23 8 24 9 25 29 26 10 27 28 28 11 29 30 30 12 31 13 32
REMARK SMILES IDX 14 33 15 35 26 36 27 37 16 38 17 39 18 40 19 42 20 43 25 44
REMARK SMILES IDX 21 45 24 46 22 47 23 48
REMARK H PARENT 12 34 18 41
ROOT
ATOM      1  O   UNL     1      23.151   5.066  48.583  1.00  0.00    -0.454 OA
ENDROOT
BRANCH   1   2
ATOM      2  C   UNL     1      23.301   6.415  48.821  1.00  0.00     0.138 A 
ATOM      3  C   UNL     1      26.968   7.028  48.270  1.00  0.00     0.161 A 
ATOM      4  C   UNL     1      25.751   6.352  48.370  1.00  0.00     0.064 A 
ATOM      5  C   UNL     1      27.005   8.411  48.514  1.00  0.00     0.163 A 
ATOM      6  C   UNL     1      24.562   7.037  48.712  1.00  0.00     0.047 A 
ATOM      7  C   UNL     1      25.825   9.080  48.850  1.00  0.00     0.079 A 
ATOM      8  C   UNL     1      24.605   8.422  48.945  1.00  0.00     0.078 A 
ATOM      9  C   UNL     1      22.155   7.159  49.073  1.00  0.00     0.068 A 
ATOM     10  N   UNL     1      23.506   9.141  49.241  1.00  0.00    -0.256 NA
ATOM     11  C   UNL     1      22.313   8.509  49.286  1.00  0.00     0.115 A 
BRANCH   3  12
ATOM     12  O   UNL     1      28.161   6.436  47.943  1.00  0.00    -0.493 OA
ATOM     13  C   UNL     1      28.384   5.106  48.388  1.00  0.00     0.278 C 
ENDBRANCH   3  12
BRANCH   5  14
ATOM     14  O   UNL     1      28.235   9.002  48.387  1.00  0.00    -0.490 OA
BRANCH  14  15
ATOM     15  C   UNL     1      28.771   9.775  49.457  1.00  0.00     0.231 C 
BRANCH  15  16
ATOM     16  C   UNL     1      30.280   9.574  49.609  1.00  0.00     0.057 C 
BRANCH  16  17
ATOM     17  C   UNL     1      30.950   9.275  48.259  1.00  0.00     0.088 C 
BRANCH  17  18
ATOM     18  N   UNL     1      31.697   8.017  48.153  1.00  0.00    -0.299 NA
ATOM     19  C   UNL     1      33.144   8.198  47.947  1.00  0.00     0.113 C 
ATOM     20  C   UNL     1      31.472   7.098  49.283  1.00  0.00     0.113 C 
ATOM     21  C   UNL     1      33.837   6.841  47.744  1.00  0.00     0.175 C 
ATOM     22  C   UNL     1      32.204   5.766  49.051  1.00  0.00     0.175 C 
ATOM     23  O   UNL     1      33.611   5.970  48.862  1.00  0.00    -0.379 OA
ENDBRANCH  17  18
ENDBRANCH  16  17
ENDBRANCH  15  16
ENDBRANCH  14  15
ENDBRANCH   5  14
ENDBRANCH   1   2
BRANCH   1  24
ATOM     24  C   UNL     1      23.022   4.246  49.683  1.00  0.00     0.163 A 
ATOM     25  C   UNL     1      21.915   4.236  50.531  1.00  0.00     0.052 A 
ATOM     26  C   UNL     1      24.048   3.329  49.904  1.00  0.00     0.167 A 
ATOM     27  C   UNL     1      21.850   3.319  51.589  1.00  0.00     0.030 A 
ATOM     28  C   UNL     1      23.991   2.421  50.959  1.00  0.00     0.069 A 
ATOM     29  C   UNL     1      22.882   2.404  51.809  1.00  0.00     0.044 A 
ATOM     30  F   UNL     1      25.126   3.318  49.106  1.00  0.00    -0.203 F 
BRANCH  29  31
ATOM     31  N   UNL     1      22.881   1.450  52.844  1.00  0.00    -0.325 N 
ATOM     32  C   UNL     1      22.431   0.148  52.783  1.00  0.00     0.240 C 
ATOM     33  O   UNL     1      21.972  -0.449  51.820  1.00  0.00    -0.273 OA
ATOM     34  H   UNL     1      23.303   1.732  53.723  1.00  0.00     0.169 HD
BRANCH  32  35
ATOM     35  C   UNL     1      22.592  -0.591  54.076  1.00  0.00     0.128 C 
ATOM     36  C   UNL     1      21.516  -1.603  54.470  1.00  0.00     0.028 C 
ATOM     37  C   UNL     1      21.586  -0.293  55.189  1.00  0.00     0.028 C 
BRANCH  35  38
ATOM     38  C   UNL     1      24.006  -0.900  54.464  1.00  0.00     0.240 C 
ATOM     39  O   UNL     1      24.223  -1.366  55.575  1.00  0.00    -0.274 OA
ATOM     40  N   UNL     1      24.919  -0.590  53.477  1.00  0.00    -0.325 N 
ATOM     41  H   UNL     1      24.538  -0.175  52.633  1.00  0.00     0.169 HD
BRANCH  40  42
ATOM     42  C   UNL     1      26.319  -0.730  53.527  1.00  0.00     0.041 A 
ATOM     43  C   UNL     1      27.027  -1.730  52.852  1.00  0.00     0.029 A 
ATOM     44  C   UNL     1      27.027   0.199  54.301  1.00  0.00     0.029 A 
ATOM     45  C   UNL     1      28.419  -1.806  52.960  1.00  0.00     0.041 A 
ATOM     46  C   UNL     1      28.418   0.124  54.406  1.00  0.00     0.041 A 
ATOM     47  C   UNL     1      29.102  -0.880  53.736  1.00  0.00     0.123 A 
ATOM     48  F   UNL     1      30.434  -0.959  53.845  1.00  0.00    -0.207 F 
ENDBRANCH  40  42
ENDBRANCH  35  38
ENDBRANCH  32  35
ENDBRANCH  29  31
ENDBRANCH   1  24
TORSDOF 12
ENDMDL
MODEL 9
REMARK minimizedAffinity -9.38626003
REMARK minimizedRMSD -1
REMARK SMILES COc1cc2c(Oc3ccc(NC(=O)C4(C(=O)Nc5ccc(F)cc5)CC4)cc3F)ccnc2cc1OCCCN1CCOCC1
REMARK SMILES IDX 7 1 6 2 3 3 4 4 36 5 5 6 35 7 34 8 31 9 33 10 32 11 2 12
REMARK SMILES IDX 1 13 37 14 38 15 39 16 40 17 41 18 42 19 46 20 43 21 45 22
REMARK SMILES IDX 44 23 8 24 9 25 29 26 10 27 28 28 11 29 30 30 12 31 13 32
REMARK SMILES IDX 14 33 15 35 26 36 27 37 16 38 17 39 18 40 19 42 20 43 25 44
REMARK SMILES IDX 21 45 24 46 22 47 23 48
REMARK H PARENT 12 34 18 41
ROOT
ATOM      1  O   UNL     1      25.942   6.190  48.424  1.00  0.00    -0.454 OA
ENDROOT
BRANCH   1   2
ATOM      2  C   UNL     1      26.547   7.334  48.899  1.00  0.00     0.138 A 
ATOM      3  C   UNL     1      30.145   6.941  47.888  1.00  0.00     0.161 A 
ATOM      4  C   UNL     1      28.788   6.655  48.049  1.00  0.00     0.064 A 
ATOM      5  C   UNL     1      30.656   8.148  48.393  1.00  0.00     0.163 A 
ATOM      6  C   UNL     1      27.926   7.559  48.711  1.00  0.00     0.047 A 
ATOM      7  C   UNL     1      29.795   9.037  49.045  1.00  0.00     0.079 A 
ATOM      8  C   UNL     1      28.441   8.770  49.205  1.00  0.00     0.078 A 
ATOM      9  C   UNL     1      25.736   8.302  49.479  1.00  0.00     0.068 A 
ATOM     10  N   UNL     1      27.670   9.689  49.815  1.00  0.00    -0.256 NA
ATOM     11  C   UNL     1      26.346   9.450  49.928  1.00  0.00     0.115 A 
BRANCH   3  12
ATOM     12  O   UNL     1      31.043   6.117  47.258  1.00  0.00    -0.493 OA
ATOM     13  C   UNL     1      31.564   5.020  47.994  1.00  0.00     0.278 C 
ENDBRANCH   3  12
BRANCH   5  14
ATOM     14  O   UNL     1      31.994   8.358  48.188  1.00  0.00    -0.490 OA
BRANCH  14  15
ATOM     15  C   UNL     1      32.432   9.449  47.384  1.00  0.00     0.231 C 
BRANCH  15  16
ATOM     16  C   UNL     1      33.823   9.205  46.795  1.00  0.00     0.057 C 
BRANCH  16  17
ATOM     17  C   UNL     1      34.095   7.707  46.589  1.00  0.00     0.088 C 
BRANCH  17  18
ATOM     18  N   UNL     1      33.605   7.109  45.341  1.00  0.00    -0.299 NA
ATOM     19  C   UNL     1      34.043   7.821  44.128  1.00  0.00     0.113 C 
ATOM     20  C   UNL     1      33.914   5.675  45.209  1.00  0.00     0.113 C 
ATOM     21  C   UNL     1      33.406   7.197  42.875  1.00  0.00     0.175 C 
ATOM     22  C   UNL     1      33.282   5.099  43.932  1.00  0.00     0.175 C 
ATOM     23  O   UNL     1      33.732   5.804  42.766  1.00  0.00    -0.379 OA
ENDBRANCH  17  18
ENDBRANCH  16  17
ENDBRANCH  15  16
ENDBRANCH  14  15
ENDBRANCH   5  14
ENDBRANCH   1   2
BRANCH   1  24
ATOM     24  C   UNL     1      25.466   5.299  49.361  1.00  0.00     0.163 A 
ATOM     25  C   UNL     1      24.300   5.484  50.102  1.00  0.00     0.052 A 
ATOM     26  C   UNL     1      26.178   4.109  49.511  1.00  0.00     0.167 A 
ATOM     27  C   UNL     1      23.865   4.488  50.988  1.00  0.00     0.030 A 
ATOM     28  C   UNL     1      25.753   3.120  50.394  1.00  0.00     0.069 A 
ATOM     29  C   UNL     1      24.584   3.299  51.137  1.00  0.00     0.044 A 
ATOM     30  F   UNL     1      27.304   3.905  48.812  1.00  0.00    -0.203 F 
BRANCH  29  31
ATOM     31  N   UNL     1      24.202   2.253  51.998  1.00  0.00    -0.325 N 
ATOM     32  C   UNL     1      23.321   1.226  51.731  1.00  0.00     0.240 C 
ATOM     33  O   UNL     1      22.718   1.000  50.692  1.00  0.00    -0.273 OA
ATOM     34  H   UNL     1      24.662   2.217  52.903  1.00  0.00     0.169 HD
BRANCH  32  35
ATOM     35  C   UNL     1      23.159   0.277  52.878  1.00  0.00     0.128 C 
ATOM     36  C   UNL     1      22.006  -0.726  52.830  1.00  0.00     0.028 C 
ATOM     37  C   UNL     1      21.919   0.442  53.760  1.00  0.00     0.028 C 
BRANCH  35  38
ATOM     38  C   UNL     1      24.434  -0.167  53.527  1.00  0.00     0.240 C 
ATOM     39  O   UNL     1      24.385  -0.654  54.648  1.00  0.00    -0.274 OA
ATOM     40  N   UNL     1      25.547   0.055  52.742  1.00  0.00    -0.325 N 
ATOM     41  H   UNL     1      25.378   0.507  51.849  1.00  0.00     0.169 HD
BRANCH  40  42
ATOM     42  C   UNL     1      26.891  -0.218  53.060  1.00  0.00     0.041 A 
ATOM     43  C   UNL     1      27.784   0.736  53.558  1.00  0.00     0.029 A 
ATOM     44  C   UNL     1      27.341  -1.530  52.859  1.00  0.00     0.029 A 
ATOM     45  C   UNL     1      29.107   0.386  53.840  1.00  0.00     0.041 A 
ATOM     46  C   UNL     1      28.663  -1.880  53.144  1.00  0.00     0.041 A 
ATOM     47  C   UNL     1      29.536  -0.916  53.630  1.00  0.00     0.123 A 
ATOM     48  F   UNL     1      30.806  -1.248  53.893  1.00  0.00    -0.207 F 
ENDBRANCH  40  42
ENDBRANCH  35  38
ENDBRANCH  32  35
ENDBRANCH  29  31
ENDBRANCH   1  24
TORSDOF 12
ENDMDL
MODEL 10
REMARK minimizedAffinity -9.31228065
REMARK minimizedRMSD -1
REMARK SMILES COc1cc2c(Oc3ccc(NC(=O)C4(C(=O)Nc5ccc(F)cc5)CC4)cc3F)ccnc2cc1OCCCN1CCOCC1
REMARK SMILES IDX 7 1 6 2 3 3 4 4 36 5 5 6 35 7 34 8 31 9 33 10 32 11 2 12
REMARK SMILES IDX 1 13 37 14 38 15 39 16 40 17 41 18 42 19 46 20 43 21 45 22
REMARK SMILES IDX 44 23 8 24 9 25 29 26 10 27 28 28 11 29 30 30 12 31 13 32
REMARK SMILES IDX 14 33 15 35 26 36 27 37 16 38 17 39 18 40 19 42 20 43 25 44
REMARK SMILES IDX 21 45 24 46 22 47 23 48
REMARK H PARENT 12 34 18 41
ROOT
ATOM      1  O   UNL     1      25.208   6.567  48.697  1.00  0.00    -0.454 OA
ENDROOT
BRANCH   1   2
ATOM      2  C   UNL     1      26.040   7.648  48.891  1.00  0.00     0.138 A 
ATOM      3  C   UNL     1      26.842   8.811  45.409  1.00  0.00     0.161 A 
ATOM      4  C   UNL     1      26.299   8.051  46.446  1.00  0.00     0.064 A 
ATOM      5  C   UNL     1      27.662   9.908  45.719  1.00  0.00     0.163 A 
ATOM      6  C   UNL     1      26.563   8.369  47.798  1.00  0.00     0.047 A 
ATOM      7  C   UNL     1      27.916  10.217  47.059  1.00  0.00     0.079 A 
ATOM      8  C   UNL     1      27.377   9.475  48.102  1.00  0.00     0.078 A 
ATOM      9  C   UNL     1      26.265   8.066  50.198  1.00  0.00     0.068 A 
ATOM     10  N   UNL     1      27.641   9.853  49.367  1.00  0.00    -0.256 NA
ATOM     11  C   UNL     1      27.077   9.161  50.380  1.00  0.00     0.115 A 
BRANCH   3  12
ATOM     12  O   UNL     1      26.632   8.567  44.075  1.00  0.00    -0.493 OA
ATOM     13  C   UNL     1      25.293   8.372  43.641  1.00  0.00     0.278 C 
ENDBRANCH   3  12
BRANCH   5  14
ATOM     14  O   UNL     1      28.148  10.607  44.646  1.00  0.00    -0.490 OA
BRANCH  14  15
ATOM     15  C   UNL     1      29.550  10.819  44.505  1.00  0.00     0.231 C 
BRANCH  15  16
ATOM     16  C   UNL     1      30.321   9.501  44.403  1.00  0.00     0.057 C 
BRANCH  16  17
ATOM     17  C   UNL     1      31.568   9.504  45.301  1.00  0.00     0.088 C 
BRANCH  17  18
ATOM     18  N   UNL     1      31.499   8.711  46.534  1.00  0.00    -0.299 NA
ATOM     19  C   UNL     1      31.386   9.523  47.758  1.00  0.00     0.113 C 
ATOM     20  C   UNL     1      30.439   7.688  46.522  1.00  0.00     0.113 C 
ATOM     21  C   UNL     1      31.423   8.627  49.007  1.00  0.00     0.175 C 
ATOM     22  C   UNL     1      30.496   6.834  47.799  1.00  0.00     0.175 C 
ATOM     23  O   UNL     1      30.375   7.647  48.975  1.00  0.00    -0.379 OA
ENDBRANCH  17  18
ENDBRANCH  16  17
ENDBRANCH  15  16
ENDBRANCH  14  15
ENDBRANCH   5  14
ENDBRANCH   1   2
BRANCH   1  24
ATOM     24  C   UNL     1      25.554   5.390  49.324  1.00  0.00     0.163 A 
ATOM     25  C   UNL     1      26.683   4.634  49.011  1.00  0.00     0.052 A 
ATOM     26  C   UNL     1      24.744   4.983  50.383  1.00  0.00     0.167 A 
ATOM     27  C   UNL     1      26.983   3.481  49.750  1.00  0.00     0.030 A 
ATOM     28  C   UNL     1      25.034   3.835  51.116  1.00  0.00     0.069 A 
ATOM     29  C   UNL     1      26.167   3.076  50.808  1.00  0.00     0.044 A 
ATOM     30  F   UNL     1      23.650   5.689  50.705  1.00  0.00    -0.203 F 
BRANCH  29  31
ATOM     31  N   UNL     1      26.411   1.938  51.599  1.00  0.00    -0.325 N 
ATOM     32  C   UNL     1      27.415   1.763  52.530  1.00  0.00     0.240 C 
ATOM     33  O   UNL     1      28.271   2.563  52.876  1.00  0.00    -0.273 OA
ATOM     34  H   UNL     1      25.748   1.174  51.515  1.00  0.00     0.169 HD
BRANCH  32  35
ATOM     35  C   UNL     1      27.369   0.423  53.198  1.00  0.00     0.128 C 
ATOM     36  C   UNL     1      28.114   0.250  54.523  1.00  0.00     0.028 C 
ATOM     37  C   UNL     1      28.676  -0.368  53.282  1.00  0.00     0.028 C 
BRANCH  35  38
ATOM     38  C   UNL     1      26.091  -0.338  53.020  1.00  0.00     0.240 C 
ATOM     39  O   UNL     1      26.095  -1.337  52.313  1.00  0.00    -0.274 OA
ATOM     40  N   UNL     1      25.028   0.222  53.697  1.00  0.00    -0.325 N 
ATOM     41  H   UNL     1      25.225   1.079  54.204  1.00  0.00     0.169 HD
BRANCH  40  42
ATOM     42  C   UNL     1      23.693  -0.223  53.720  1.00  0.00     0.041 A 
ATOM     43  C   UNL     1      22.747   0.098  52.742  1.00  0.00     0.029 A 
ATOM     44  C   UNL     1      23.309  -1.037  54.794  1.00  0.00     0.029 A 
ATOM     45  C   UNL     1      21.436  -0.378  52.842  1.00  0.00     0.041 A 
ATOM     46  C   UNL     1      22.000  -1.515  54.892  1.00  0.00     0.041 A 
ATOM     47  C   UNL     1      21.073  -1.178  53.915  1.00  0.00     0.123 A 
ATOM     48  F   UNL     1      19.815  -1.626  54.015  1.00  0.00    -0.207 F 
ENDBRANCH  40  42
ENDBRANCH  35  38
ENDBRANCH  32  35
ENDBRANCH  29  31
ENDBRANCH   1  24
TORSDOF 12
ENDMDL
MODEL 11
REMARK minimizedAffinity -9.23302841
REMARK minimizedRMSD -1
REMARK SMILES COc1cc2c(Oc3ccc(NC(=O)C4(C(=O)Nc5ccc(F)cc5)CC4)cc3F)ccnc2cc1OCCCN1CCOCC1
REMARK SMILES IDX 7 1 6 2 3 3 4 4 36 5 5 6 35 7 34 8 31 9 33 10 32 11 2 12
REMARK SMILES IDX 1 13 37 14 38 15 39 16 40 17 41 18 42 19 46 20 43 21 45 22
REMARK SMILES IDX 44 23 8 24 9 25 29 26 10 27 28 28 11 29 30 30 12 31 13 32
REMARK SMILES IDX 14 33 15 35 26 36 27 37 16 38 17 39 18 40 19 42 20 43 25 44
REMARK SMILES IDX 21 45 24 46 22 47 23 48
REMARK H PARENT 12 34 18 41
ROOT
ATOM      1  O   UNL     1      25.218   8.066  49.197  1.00  0.00    -0.454 OA
ENDROOT
BRANCH   1   2
ATOM      2  C   UNL     1      25.535   8.258  47.870  1.00  0.00     0.138 A 
ATOM      3  C   UNL     1      29.276   8.606  47.872  1.00  0.00     0.161 A 
ATOM      4  C   UNL     1      27.974   8.437  48.344  1.00  0.00     0.064 A 
ATOM      5  C   UNL     1      29.490   8.773  46.494  1.00  0.00     0.163 A 
ATOM      6  C   UNL     1      26.872   8.432  47.459  1.00  0.00     0.047 A 
ATOM      7  C   UNL     1      28.394   8.765  45.625  1.00  0.00     0.079 A 
ATOM      8  C   UNL     1      27.093   8.589  46.079  1.00  0.00     0.078 A 
ATOM      9  C   UNL     1      24.505   8.173  46.940  1.00  0.00     0.068 A 
ATOM     10  N   UNL     1      26.093   8.561  45.178  1.00  0.00    -0.256 NA
ATOM     11  C   UNL     1      24.834   8.342  45.615  1.00  0.00     0.115 A 
BRANCH   3  12
ATOM     12  O   UNL     1      30.395   8.621  48.666  1.00  0.00    -0.493 OA
ATOM     13  C   UNL     1      30.605   9.757  49.493  1.00  0.00     0.278 C 
ENDBRANCH   3  12
BRANCH   5  14
ATOM     14  O   UNL     1      30.796   8.924  46.110  1.00  0.00    -0.490 OA
BRANCH  14  15
ATOM     15  C   UNL     1      31.334   8.115  45.069  1.00  0.00     0.231 C 
BRANCH  15  16
ATOM     16  C   UNL     1      32.851   8.279  44.940  1.00  0.00     0.057 C 
BRANCH  16  17
ATOM     17  C   UNL     1      33.604   7.324  45.879  1.00  0.00     0.088 C 
BRANCH  17  18
ATOM     18  N   UNL     1      32.794   6.364  46.638  1.00  0.00    -0.299 NA
ATOM     19  C   UNL     1      32.942   4.970  46.184  1.00  0.00     0.113 C 
ATOM     20  C   UNL     1      33.005   6.432  48.095  1.00  0.00     0.113 C 
ATOM     21  C   UNL     1      31.989   4.045  46.957  1.00  0.00     0.175 C 
ATOM     22  C   UNL     1      32.051   5.473  48.825  1.00  0.00     0.175 C 
ATOM     23  O   UNL     1      32.222   4.123  48.371  1.00  0.00    -0.379 OA
ENDBRANCH  17  18
ENDBRANCH  16  17
ENDBRANCH  15  16
ENDBRANCH  14  15
ENDBRANCH   5  14
ENDBRANCH   1   2
BRANCH   1  24
ATOM     24  C   UNL     1      24.978   6.771  49.603  1.00  0.00     0.163 A 
ATOM     25  C   UNL     1      25.737   5.670  49.208  1.00  0.00     0.052 A 
ATOM     26  C   UNL     1      23.945   6.583  50.520  1.00  0.00     0.167 A 
ATOM     27  C   UNL     1      25.451   4.398  49.726  1.00  0.00     0.030 A 
ATOM     28  C   UNL     1      23.653   5.321  51.031  1.00  0.00     0.069 A 
ATOM     29  C   UNL     1      24.413   4.215  50.642  1.00  0.00     0.044 A 
ATOM     30  F   UNL     1      23.197   7.624  50.914  1.00  0.00    -0.203 F 
BRANCH  29  31
ATOM     31  N   UNL     1      24.076   2.972  51.210  1.00  0.00    -0.325 N 
ATOM     32  C   UNL     1      24.122   2.619  52.542  1.00  0.00     0.240 C 
ATOM     33  O   UNL     1      24.433   3.314  53.498  1.00  0.00    -0.273 OA
ATOM     34  H   UNL     1      23.710   2.267  50.578  1.00  0.00     0.169 HD
BRANCH  32  35
ATOM     35  C   UNL     1      23.679   1.210  52.793  1.00  0.00     0.128 C 
ATOM     36  C   UNL     1      22.602   0.618  51.882  1.00  0.00     0.028 C 
ATOM     37  C   UNL     1      22.246   0.998  53.284  1.00  0.00     0.028 C 
BRANCH  35  38
ATOM     38  C   UNL     1      24.744   0.284  53.296  1.00  0.00     0.240 C 
ATOM     39  O   UNL     1      24.427  -0.614  54.064  1.00  0.00    -0.274 OA
ATOM     40  N   UNL     1      26.000   0.590  52.814  1.00  0.00    -0.325 N 
ATOM     41  H   UNL     1      26.058   1.403  52.209  1.00  0.00     0.169 HD
BRANCH  40  42
ATOM     42  C   UNL     1      27.214  -0.058  53.107  1.00  0.00     0.041 A 
ATOM     43  C   UNL     1      27.471  -1.401  52.815  1.00  0.00     0.029 A 
ATOM     44  C   UNL     1      28.213   0.706  53.725  1.00  0.00     0.029 A 
ATOM     45  C   UNL     1      28.703  -1.974  53.148  1.00  0.00     0.041 A 
ATOM     46  C   UNL     1      29.444   0.134  54.055  1.00  0.00     0.041 A 
ATOM     47  C   UNL     1      29.677  -1.203  53.765  1.00  0.00     0.123 A 
ATOM     48  F   UNL     1      30.853  -1.755  54.090  1.00  0.00    -0.207 F 
ENDBRANCH  40  42
ENDBRANCH  35  38
ENDBRANCH  32  35
ENDBRANCH  29  31
ENDBRANCH   1  24
TORSDOF 12
ENDMDL
MODEL 12
REMARK minimizedAffinity -9.14090538
REMARK minimizedRMSD -1
REMARK SMILES COc1cc2c(Oc3ccc(NC(=O)C4(C(=O)Nc5ccc(F)cc5)CC4)cc3F)ccnc2cc1OCCCN1CCOCC1
REMARK SMILES IDX 7 1 6 2 3 3 4 4 36 5 5 6 35 7 34 8 31 9 33 10 32 11 2 12
REMARK SMILES IDX 1 13 37 14 38 15 39 16 40 17 41 18 42 19 46 20 43 21 45 22
REMARK SMILES IDX 44 23 8 24 9 25 29 26 10 27 28 28 11 29 30 30 12 31 13 32
REMARK SMILES IDX 14 33 15 35 26 36 27 37 16 38 17 39 18 40 19 42 20 43 25 44
REMARK SMILES IDX 21 45 24 46 22 47 23 48
REMARK H PARENT 12 34 18 41
ROOT
ATOM      1  O   UNL     1      23.101   5.841  48.713  1.00  0.00    -0.454 OA
ENDROOT
BRANCH   1   2
ATOM      2  C   UNL     1      22.864   4.484  48.691  1.00  0.00     0.138 A 
ATOM      3  C   UNL     1      23.561   3.386  52.216  1.00  0.00     0.161 A 
ATOM      4  C   UNL     1      23.433   4.215  51.101  1.00  0.00     0.064 A 
ATOM      5  C   UNL     1      23.273   2.017  52.089  1.00  0.00     0.163 A 
ATOM      6  C   UNL     1      23.020   3.699  49.852  1.00  0.00     0.047 A 
ATOM      7  C   UNL     1      22.863   1.515  50.850  1.00  0.00     0.079 A 
ATOM      8  C   UNL     1      22.724   2.330  49.733  1.00  0.00     0.078 A 
ATOM      9  C   UNL     1      22.369   3.932  47.515  1.00  0.00     0.068 A 
ATOM     10  N   UNL     1      22.294   1.780  48.582  1.00  0.00    -0.256 NA
ATOM     11  C   UNL     1      22.113   2.581  47.510  1.00  0.00     0.115 A 
BRANCH   3  12
ATOM     12  O   UNL     1      23.954   3.811  53.460  1.00  0.00    -0.493 OA
ATOM     13  C   UNL     1      23.738   5.175  53.792  1.00  0.00     0.278 C 
ENDBRANCH   3  12
BRANCH   5  14
ATOM     14  O   UNL     1      23.414   1.272  53.230  1.00  0.00    -0.490 OA
BRANCH  14  15
ATOM     15  C   UNL     1      23.644  -0.131  53.146  1.00  0.00     0.231 C 
BRANCH  15  16
ATOM     16  C   UNL     1      24.952  -0.539  53.828  1.00  0.00     0.057 C 
BRANCH  16  17
ATOM     17  C   UNL     1      26.099  -0.676  52.814  1.00  0.00     0.088 C 
BRANCH  17  18
ATOM     18  N   UNL     1      27.266   0.192  53.013  1.00  0.00    -0.299 NA
ATOM     19  C   UNL     1      26.928   1.543  53.494  1.00  0.00     0.113 C 
ATOM     20  C   UNL     1      28.301  -0.395  53.881  1.00  0.00     0.113 C 
ATOM     21  C   UNL     1      28.188   2.420  53.578  1.00  0.00     0.175 C 
ATOM     22  C   UNL     1      29.530   0.525  53.958  1.00  0.00     0.175 C 
ATOM     23  O   UNL     1      29.175   1.830  54.437  1.00  0.00    -0.379 OA
ENDBRANCH  17  18
ENDBRANCH  16  17
ENDBRANCH  15  16
ENDBRANCH  14  15
ENDBRANCH   5  14
ENDBRANCH   1   2
BRANCH   1  24
ATOM     24  C   UNL     1      24.412   6.250  48.591  1.00  0.00     0.163 A 
ATOM     25  C   UNL     1      25.515   5.446  48.872  1.00  0.00     0.052 A 
ATOM     26  C   UNL     1      24.623   7.534  48.090  1.00  0.00     0.167 A 
ATOM     27  C   UNL     1      26.812   5.934  48.656  1.00  0.00     0.030 A 
ATOM     28  C   UNL     1      25.909   8.025  47.882  1.00  0.00     0.069 A 
ATOM     29  C   UNL     1      27.019   7.222  48.157  1.00  0.00     0.044 A 
ATOM     30  F   UNL     1      23.580   8.330  47.815  1.00  0.00    -0.203 F 
BRANCH  29  31
ATOM     31  N   UNL     1      28.289   7.774  47.907  1.00  0.00    -0.325 N 
ATOM     32  C   UNL     1      28.951   8.726  48.654  1.00  0.00     0.240 C 
ATOM     33  O   UNL     1      28.587   9.260  49.691  1.00  0.00    -0.273 OA
ATOM     34  H   UNL     1      28.803   7.397  47.117  1.00  0.00     0.169 HD
BRANCH  32  35
ATOM     35  C   UNL     1      30.299   9.075  48.100  1.00  0.00     0.128 C 
ATOM     36  C   UNL     1      31.108  10.168  48.801  1.00  0.00     0.028 C 
ATOM     37  C   UNL     1      30.469  10.464  47.482  1.00  0.00     0.028 C 
BRANCH  35  38
ATOM     38  C   UNL     1      31.058   7.933  47.496  1.00  0.00     0.240 C 
ATOM     39  O   UNL     1      30.944   7.721  46.296  1.00  0.00    -0.274 OA
ATOM     40  N   UNL     1      31.808   7.233  48.418  1.00  0.00    -0.325 N 
ATOM     41  H   UNL     1      31.739   7.550  49.380  1.00  0.00     0.169 HD
BRANCH  40  42
ATOM     42  C   UNL     1      32.610   6.099  48.190  1.00  0.00     0.041 A 
ATOM     43  C   UNL     1      32.099   4.822  47.934  1.00  0.00     0.029 A 
ATOM     44  C   UNL     1      33.998   6.281  48.224  1.00  0.00     0.029 A 
ATOM     45  C   UNL     1      32.964   3.744  47.727  1.00  0.00     0.041 A 
ATOM     46  C   UNL     1      34.862   5.204  48.014  1.00  0.00     0.041 A 
ATOM     47  C   UNL     1      34.337   3.942  47.769  1.00  0.00     0.123 A 
ATOM     48  F   UNL     1      35.164   2.907  47.579  1.00  0.00    -0.207 F 
ENDBRANCH  40  42
ENDBRANCH  35  38
ENDBRANCH  32  35
ENDBRANCH  29  31
ENDBRANCH   1  24
TORSDOF 12
ENDMDL
MODEL 13
REMARK minimizedAffinity -9.10453415
REMARK minimizedRMSD -1
REMARK SMILES COc1cc2c(Oc3ccc(NC(=O)C4(C(=O)Nc5ccc(F)cc5)CC4)cc3F)ccnc2cc1OCCCN1CCOCC1
REMARK SMILES IDX 7 1 6 2 3 3 4 4 36 5 5 6 35 7 34 8 31 9 33 10 32 11 2 12
REMARK SMILES IDX 1 13 37 14 38 15 39 16 40 17 41 18 42 19 46 20 43 21 45 22
REMARK SMILES IDX 44 23 8 24 9 25 29 26 10 27 28 28 11 29 30 30 12 31 13 32
REMARK SMILES IDX 14 33 15 35 26 36 27 37 16 38 17 39 18 40 19 42 20 43 25 44
REMARK SMILES IDX 21 45 24 46 22 47 23 48
REMARK H PARENT 12 34 18 41
ROOT
ATOM      1  O   UNL     1      23.202   5.989  49.734  1.00  0.00    -0.454 OA
ENDROOT
BRANCH   1   2
ATOM      2  C   UNL     1      22.876   4.698  49.377  1.00  0.00     0.138 A 
ATOM      3  C   UNL     1      23.914   2.647  52.349  1.00  0.00     0.161 A 
ATOM      4  C   UNL     1      23.709   3.756  51.528  1.00  0.00     0.064 A 
ATOM      5  C   UNL     1      23.523   1.376  51.896  1.00  0.00     0.163 A 
ATOM      6  C   UNL     1      23.117   3.619  50.251  1.00  0.00     0.047 A 
ATOM      7  C   UNL     1      22.938   1.250  50.632  1.00  0.00     0.079 A 
ATOM      8  C   UNL     1      22.720   2.346  49.807  1.00  0.00     0.078 A 
ATOM      9  C   UNL     1      22.209   4.509  48.172  1.00  0.00     0.068 A 
ATOM     10  N   UNL     1      22.121   2.148  48.617  1.00  0.00    -0.256 NA
ATOM     11  C   UNL     1      21.866   3.220  47.836  1.00  0.00     0.115 A 
BRANCH   3  12
ATOM     12  O   UNL     1      24.479   2.699  53.599  1.00  0.00    -0.493 OA
ATOM     13  C   UNL     1      25.855   2.369  53.717  1.00  0.00     0.278 C 
ENDBRANCH   3  12
BRANCH   5  14
ATOM     14  O   UNL     1      23.750   0.341  52.764  1.00  0.00    -0.490 OA
BRANCH  14  15
ATOM     15  C   UNL     1      22.684  -0.525  53.139  1.00  0.00     0.231 C 
BRANCH  15  16
ATOM     16  C   UNL     1      21.578   0.219  53.891  1.00  0.00     0.057 C 
BRANCH  16  17
ATOM     17  C   UNL     1      20.187  -0.122  53.333  1.00  0.00     0.088 C 
BRANCH  17  18
ATOM     18  N   UNL     1      19.552   0.884  52.474  1.00  0.00    -0.299 NA
ATOM     19  C   UNL     1      20.161   2.222  52.574  1.00  0.00     0.113 C 
ATOM     20  C   UNL     1      19.468   0.487  51.058  1.00  0.00     0.113 C 
ATOM     21  C   UNL     1      19.378   3.238  51.727  1.00  0.00     0.175 C 
ATOM     22  C   UNL     1      18.702   1.541  50.244  1.00  0.00     0.175 C 
ATOM     23  O   UNL     1      19.320   2.832  50.351  1.00  0.00    -0.379 OA
ENDBRANCH  17  18
ENDBRANCH  16  17
ENDBRANCH  15  16
ENDBRANCH  14  15
ENDBRANCH   5  14
ENDBRANCH   1   2
BRANCH   1  24
ATOM     24  C   UNL     1      24.519   6.365  49.585  1.00  0.00     0.163 A 
ATOM     25  C   UNL     1      25.438   5.708  48.768  1.00  0.00     0.052 A 
ATOM     26  C   UNL     1      24.919   7.521  50.253  1.00  0.00     0.167 A 
ATOM     27  C   UNL     1      26.742   6.206  48.635  1.00  0.00     0.030 A 
ATOM     28  C   UNL     1      26.215   8.016  50.130  1.00  0.00     0.069 A 
ATOM     29  C   UNL     1      27.138   7.363  49.309  1.00  0.00     0.044 A 
ATOM     30  F   UNL     1      24.057   8.172  51.048  1.00  0.00    -0.203 F 
BRANCH  29  31
ATOM     31  N   UNL     1      28.425   7.926  49.216  1.00  0.00    -0.325 N 
ATOM     32  C   UNL     1      28.938   8.678  48.179  1.00  0.00     0.240 C 
ATOM     33  O   UNL     1      28.377   9.031  47.152  1.00  0.00    -0.273 OA
ATOM     34  H   UNL     1      29.033   7.810  50.021  1.00  0.00     0.169 HD
BRANCH  32  35
ATOM     35  C   UNL     1      30.347   9.127  48.420  1.00  0.00     0.128 C 
ATOM     36  C   UNL     1      30.570  10.514  49.023  1.00  0.00     0.028 C 
ATOM     37  C   UNL     1      30.870  10.290  47.576  1.00  0.00     0.028 C 
BRANCH  35  38
ATOM     38  C   UNL     1      31.307   8.043  48.805  1.00  0.00     0.240 C 
ATOM     39  O   UNL     1      31.710   7.997  49.959  1.00  0.00    -0.274 OA
ATOM     40  N   UNL     1      31.635   7.212  47.754  1.00  0.00    -0.325 N 
ATOM     41  H   UNL     1      31.217   7.442  46.858  1.00  0.00     0.169 HD
BRANCH  40  42
ATOM     42  C   UNL     1      32.523   6.120  47.767  1.00  0.00     0.041 A 
ATOM     43  C   UNL     1      33.914   6.248  47.840  1.00  0.00     0.029 A 
ATOM     44  C   UNL     1      31.962   4.838  47.703  1.00  0.00     0.029 A 
ATOM     45  C   UNL     1      34.729   5.112  47.839  1.00  0.00     0.041 A 
ATOM     46  C   UNL     1      32.776   3.703  47.705  1.00  0.00     0.041 A 
ATOM     47  C   UNL     1      34.155   3.851  47.770  1.00  0.00     0.123 A 
ATOM     48  F   UNL     1      34.937   2.764  47.760  1.00  0.00    -0.207 F 
ENDBRANCH  40  42
ENDBRANCH  35  38
ENDBRANCH  32  35
ENDBRANCH  29  31
ENDBRANCH   1  24
TORSDOF 12
ENDMDL
MODEL 14
REMARK minimizedAffinity -9.08841515
REMARK minimizedRMSD -1
REMARK SMILES COc1cc2c(Oc3ccc(NC(=O)C4(C(=O)Nc5ccc(F)cc5)CC4)cc3F)ccnc2cc1OCCCN1CCOCC1
REMARK SMILES IDX 7 1 6 2 3 3 4 4 36 5 5 6 35 7 34 8 31 9 33 10 32 11 2 12
REMARK SMILES IDX 1 13 37 14 38 15 39 16 40 17 41 18 42 19 46 20 43 21 45 22
REMARK SMILES IDX 44 23 8 24 9 25 29 26 10 27 28 28 11 29 30 30 12 31 13 32
REMARK SMILES IDX 14 33 15 35 26 36 27 37 16 38 17 39 18 40 19 42 20 43 25 44
REMARK SMILES IDX 21 45 24 46 22 47 23 48
REMARK H PARENT 12 34 18 41
ROOT
ATOM      1  O   UNL     1      25.797   6.082  48.555  1.00  0.00    -0.454 OA
ENDROOT
BRANCH   1   2
ATOM      2  C   UNL     1      26.185   7.307  49.053  1.00  0.00     0.138 A 
ATOM      3  C   UNL     1      29.835   7.522  48.187  1.00  0.00     0.161 A 
ATOM      4  C   UNL     1      28.539   7.014  48.294  1.00  0.00     0.064 A 
ATOM      5  C   UNL     1      30.118   8.794  48.711  1.00  0.00     0.163 A 
ATOM      6  C   UNL     1      27.514   7.759  48.920  1.00  0.00     0.047 A 
ATOM      7  C   UNL     1      29.097   9.524  49.327  1.00  0.00     0.079 A 
ATOM      8  C   UNL     1      27.801   9.035  49.434  1.00  0.00     0.078 A 
ATOM      9  C   UNL     1      25.202   8.124  49.599  1.00  0.00     0.068 A 
ATOM     10  N   UNL     1      26.864   9.810  50.012  1.00  0.00    -0.256 NA
ATOM     11  C   UNL     1      25.595   9.355  50.072  1.00  0.00     0.115 A 
BRANCH   3  12
ATOM     12  O   UNL     1      30.882   6.863  47.594  1.00  0.00    -0.493 OA
ATOM     13  C   UNL     1      31.191   5.557  48.060  1.00  0.00     0.278 C 
ENDBRANCH   3  12
BRANCH   5  14
ATOM     14  O   UNL     1      31.410   9.225  48.559  1.00  0.00    -0.490 OA
BRANCH  14  15
ATOM     15  C   UNL     1      31.770  10.027  47.439  1.00  0.00     0.231 C 
BRANCH  15  16
ATOM     16  C   UNL     1      30.542  10.517  46.667  1.00  0.00     0.057 C 
BRANCH  16  17
ATOM     17  C   UNL     1      30.385  12.043  46.765  1.00  0.00     0.088 C 
BRANCH  17  18
ATOM     18  N   UNL     1      29.029  12.556  46.994  1.00  0.00    -0.299 NA
ATOM     19  C   UNL     1      27.964  11.594  46.660  1.00  0.00     0.113 C 
ATOM     20  C   UNL     1      28.814  13.076  48.356  1.00  0.00     0.113 C 
ATOM     21  C   UNL     1      26.580  12.241  46.828  1.00  0.00     0.175 C 
ATOM     22  C   UNL     1      27.410  13.687  48.487  1.00  0.00     0.175 C 
ATOM     23  O   UNL     1      26.393  12.728  48.166  1.00  0.00    -0.379 OA
ENDBRANCH  17  18
ENDBRANCH  16  17
ENDBRANCH  15  16
ENDBRANCH  14  15
ENDBRANCH   5  14
ENDBRANCH   1   2
BRANCH   1  24
ATOM     24  C   UNL     1      25.790   5.022  49.436  1.00  0.00     0.163 A 
ATOM     25  C   UNL     1      24.806   4.807  50.400  1.00  0.00     0.052 A 
ATOM     26  C   UNL     1      26.807   4.080  49.290  1.00  0.00     0.167 A 
ATOM     27  C   UNL     1      24.854   3.663  51.208  1.00  0.00     0.030 A 
ATOM     28  C   UNL     1      26.863   2.946  50.096  1.00  0.00     0.069 A 
ATOM     29  C   UNL     1      25.878   2.724  51.061  1.00  0.00     0.044 A 
ATOM     30  F   UNL     1      27.769   4.263  48.373  1.00  0.00    -0.203 F 
BRANCH  29  31
ATOM     31  N   UNL     1      25.984   1.549  51.829  1.00  0.00    -0.325 N 
ATOM     32  C   UNL     1      26.495   1.425  53.105  1.00  0.00     0.240 C 
ATOM     33  O   UNL     1      26.929   2.305  53.833  1.00  0.00    -0.273 OA
ATOM     34  H   UNL     1      25.598   0.702  51.423  1.00  0.00     0.169 HD
BRANCH  32  35
ATOM     35  C   UNL     1      26.442   0.021  53.625  1.00  0.00     0.128 C 
ATOM     36  C   UNL     1      27.673  -0.530  54.345  1.00  0.00     0.028 C 
ATOM     37  C   UNL     1      27.358  -1.011  52.964  1.00  0.00     0.028 C 
BRANCH  35  38
ATOM     38  C   UNL     1      25.098  -0.432  54.109  1.00  0.00     0.240 C 
ATOM     39  O   UNL     1      25.031  -1.057  55.158  1.00  0.00    -0.274 OA
ATOM     40  N   UNL     1      24.070  -0.079  53.260  1.00  0.00    -0.325 N 
ATOM     41  H   UNL     1      24.340   0.412  52.414  1.00  0.00     0.169 HD
BRANCH  40  42
ATOM     42  C   UNL     1      22.700  -0.370  53.402  1.00  0.00     0.041 A 
ATOM     43  C   UNL     1      22.195  -1.334  54.281  1.00  0.00     0.029 A 
ATOM     44  C   UNL     1      21.805   0.361  52.609  1.00  0.00     0.029 A 
ATOM     45  C   UNL     1      20.819  -1.570  54.356  1.00  0.00     0.041 A 
ATOM     46  C   UNL     1      20.430   0.127  52.687  1.00  0.00     0.041 A 
ATOM     47  C   UNL     1      19.949  -0.840  53.559  1.00  0.00     0.123 A 
ATOM     48  F   UNL     1      18.632  -1.073  53.627  1.00  0.00    -0.207 F 
ENDBRANCH  40  42
ENDBRANCH  35  38
ENDBRANCH  32  35
ENDBRANCH  29  31
ENDBRANCH   1  24
TORSDOF 12
ENDMDL
MODEL 15
REMARK minimizedAffinity -9.07279015
REMARK minimizedRMSD -1
REMARK SMILES COc1cc2c(Oc3ccc(NC(=O)C4(C(=O)Nc5ccc(F)cc5)CC4)cc3F)ccnc2cc1OCCCN1CCOCC1
REMARK SMILES IDX 7 1 6 2 3 3 4 4 36 5 5 6 35 7 34 8 31 9 33 10 32 11 2 12
REMARK SMILES IDX 1 13 37 14 38 15 39 16 40 17 41 18 42 19 46 20 43 21 45 22
REMARK SMILES IDX 44 23 8 24 9 25 29 26 10 27 28 28 11 29 30 30 12 31 13 32
REMARK SMILES IDX 14 33 15 35 26 36 27 37 16 38 17 39 18 40 19 42 20 43 25 44
REMARK SMILES IDX 21 45 24 46 22 47 23 48
REMARK H PARENT 12 34 18 41
ROOT
ATOM      1  O   UNL     1      27.730  10.087  47.291  1.00  0.00    -0.454 OA
ENDROOT
BRANCH   1   2
ATOM      2  C   UNL     1      28.858  10.755  47.716  1.00  0.00     0.138 A 
ATOM      3  C   UNL     1      31.532   9.626  45.329  1.00  0.00     0.161 A 
ATOM      4  C   UNL     1      30.283   9.740  45.942  1.00  0.00     0.064 A 
ATOM      5  C   UNL     1      32.612  10.371  45.830  1.00  0.00     0.163 A 
ATOM      6  C   UNL     1      30.093  10.589  47.056  1.00  0.00     0.047 A 
ATOM      7  C   UNL     1      32.415  11.210  46.931  1.00  0.00     0.079 A 
ATOM      8  C   UNL     1      31.176  11.339  47.547  1.00  0.00     0.078 A 
ATOM      9  C   UNL     1      28.715  11.673  48.749  1.00  0.00     0.068 A 
ATOM     10  N   UNL     1      31.056  12.191  48.582  1.00  0.00    -0.256 NA
ATOM     11  C   UNL     1      29.842  12.353  49.150  1.00  0.00     0.115 A 
BRANCH   3  12
ATOM     12  O   UNL     1      31.795   8.826  44.245  1.00  0.00    -0.493 OA
ATOM     13  C   UNL     1      31.359   9.275  42.970  1.00  0.00     0.278 C 
ENDBRANCH   3  12
BRANCH   5  14
ATOM     14  O   UNL     1      33.801  10.210  45.168  1.00  0.00    -0.490 OA
BRANCH  14  15
ATOM     15  C   UNL     1      34.881   9.524  45.793  1.00  0.00     0.231 C 
BRANCH  15  16
ATOM     16  C   UNL     1      34.498   8.099  46.198  1.00  0.00     0.057 C 
BRANCH  16  17
ATOM     17  C   UNL     1      34.505   7.923  47.724  1.00  0.00     0.088 C 
BRANCH  17  18
ATOM     18  N   UNL     1      33.546   6.966  48.286  1.00  0.00    -0.299 NA
ATOM     19  C   UNL     1      32.182   7.505  48.430  1.00  0.00     0.113 C 
ATOM     20  C   UNL     1      33.494   5.684  47.562  1.00  0.00     0.113 C 
ATOM     21  C   UNL     1      31.265   6.481  49.118  1.00  0.00     0.175 C 
ATOM     22  C   UNL     1      32.546   4.701  48.268  1.00  0.00     0.175 C 
ATOM     23  O   UNL     1      31.224   5.246  48.386  1.00  0.00    -0.379 OA
ENDBRANCH  17  18
ENDBRANCH  16  17
ENDBRANCH  15  16
ENDBRANCH  14  15
ENDBRANCH   5  14
ENDBRANCH   1   2
BRANCH   1  24
ATOM     24  C   UNL     1      27.292   9.039  48.071  1.00  0.00     0.163 A 
ATOM     25  C   UNL     1      26.483   9.181  49.197  1.00  0.00     0.052 A 
ATOM     26  C   UNL     1      27.640   7.756  47.649  1.00  0.00     0.167 A 
ATOM     27  C   UNL     1      26.038   8.046  49.890  1.00  0.00     0.030 A 
ATOM     28  C   UNL     1      27.206   6.626  48.337  1.00  0.00     0.069 A 
ATOM     29  C   UNL     1      26.392   6.763  49.464  1.00  0.00     0.044 A 
ATOM     30  F   UNL     1      28.419   7.590  46.570  1.00  0.00    -0.203 F 
BRANCH  29  31
ATOM     31  N   UNL     1      25.975   5.580  50.103  1.00  0.00    -0.325 N 
ATOM     32  C   UNL     1      24.923   4.761  49.748  1.00  0.00     0.240 C 
ATOM     33  O   UNL     1      24.162   4.878  48.799  1.00  0.00    -0.273 OA
ATOM     34  H   UNL     1      26.539   5.262  50.885  1.00  0.00     0.169 HD
BRANCH  32  35
ATOM     35  C   UNL     1      24.773   3.574  50.649  1.00  0.00     0.128 C 
ATOM     36  C   UNL     1      23.455   2.799  50.612  1.00  0.00     0.028 C 
ATOM     37  C   UNL     1      23.755   3.675  51.786  1.00  0.00     0.028 C 
BRANCH  35  38
ATOM     38  C   UNL     1      26.028   2.790  50.890  1.00  0.00     0.240 C 
ATOM     39  O   UNL     1      26.919   2.835  50.052  1.00  0.00    -0.274 OA
ATOM     40  N   UNL     1      26.004   2.080  52.072  1.00  0.00    -0.325 N 
ATOM     41  H   UNL     1      25.149   2.149  52.616  1.00  0.00     0.169 HD
BRANCH  40  42
ATOM     42  C   UNL     1      27.002   1.229  52.583  1.00  0.00     0.041 A 
ATOM     43  C   UNL     1      26.947  -0.167  52.511  1.00  0.00     0.029 A 
ATOM     44  C   UNL     1      28.107   1.834  53.196  1.00  0.00     0.029 A 
ATOM     45  C   UNL     1      27.976  -0.943  53.051  1.00  0.00     0.041 A 
ATOM     46  C   UNL     1      29.136   1.058  53.734  1.00  0.00     0.041 A 
ATOM     47  C   UNL     1      29.060  -0.326  53.659  1.00  0.00     0.123 A 
ATOM     48  F   UNL     1      30.041  -1.071  54.184  1.00  0.00    -0.207 F 
ENDBRANCH  40  42
ENDBRANCH  35  38
ENDBRANCH  32  35
ENDBRANCH  29  31
ENDBRANCH   1  24
TORSDOF 12
ENDMDL
MODEL 16
REMARK minimizedAffinity -9.04593658
REMARK minimizedRMSD -1
REMARK SMILES COc1cc2c(Oc3ccc(NC(=O)C4(C(=O)Nc5ccc(F)cc5)CC4)cc3F)ccnc2cc1OCCCN1CCOCC1
REMARK SMILES IDX 7 1 6 2 3 3 4 4 36 5 5 6 35 7 34 8 31 9 33 10 32 11 2 12
REMARK SMILES IDX 1 13 37 14 38 15 39 16 40 17 41 18 42 19 46 20 43 21 45 22
REMARK SMILES IDX 44 23 8 24 9 25 29 26 10 27 28 28 11 29 30 30 12 31 13 32
REMARK SMILES IDX 14 33 15 35 26 36 27 37 16 38 17 39 18 40 19 42 20 43 25 44
REMARK SMILES IDX 21 45 24 46 22 47 23 48
REMARK H PARENT 12 34 18 41
ROOT
ATOM      1  O   UNL     1      25.529   9.385  47.279  1.00  0.00    -0.454 OA
ENDROOT
BRANCH   1   2
ATOM      2  C   UNL     1      26.321   9.418  46.152  1.00  0.00     0.138 A 
ATOM      3  C   UNL     1      29.604  10.763  47.390  1.00  0.00     0.161 A 
ATOM      4  C   UNL     1      28.276  10.333  47.395  1.00  0.00     0.064 A 
ATOM      5  C   UNL     1      30.329  10.736  46.188  1.00  0.00     0.163 A 
ATOM      6  C   UNL     1      27.654   9.873  46.212  1.00  0.00     0.047 A 
ATOM      7  C   UNL     1      29.706  10.278  45.022  1.00  0.00     0.079 A 
ATOM      8  C   UNL     1      28.388   9.839  45.014  1.00  0.00     0.078 A 
ATOM      9  C   UNL     1      25.795   8.895  44.976  1.00  0.00     0.068 A 
ATOM     10  N   UNL     1      27.867   9.382  43.859  1.00  0.00    -0.256 NA
ATOM     11  C   UNL     1      26.602   8.911  43.862  1.00  0.00     0.115 A 
BRANCH   3  12
ATOM     12  O   UNL     1      30.276  11.221  48.495  1.00  0.00    -0.493 OA
ATOM     13  C   UNL     1      30.721  10.262  49.444  1.00  0.00     0.278 C 
ENDBRANCH   3  12
BRANCH   5  14
ATOM     14  O   UNL     1      31.627  11.166  46.268  1.00  0.00    -0.490 OA
BRANCH  14  15
ATOM     15  C   UNL     1      32.681  10.361  45.747  1.00  0.00     0.231 C 
BRANCH  15  16
ATOM     16  C   UNL     1      32.976   9.155  46.642  1.00  0.00     0.057 C 
BRANCH  16  17
ATOM     17  C   UNL     1      32.784   7.830  45.888  1.00  0.00     0.088 C 
BRANCH  17  18
ATOM     18  N   UNL     1      32.093   6.753  46.605  1.00  0.00    -0.299 NA
ATOM     19  C   UNL     1      32.950   6.030  47.562  1.00  0.00     0.113 C 
ATOM     20  C   UNL     1      30.859   7.187  47.282  1.00  0.00     0.113 C 
ATOM     21  C   UNL     1      32.185   4.856  48.194  1.00  0.00     0.175 C 
ATOM     22  C   UNL     1      30.141   5.988  47.922  1.00  0.00     0.175 C 
ATOM     23  O   UNL     1      30.994   5.308  48.855  1.00  0.00    -0.379 OA
ENDBRANCH  17  18
ENDBRANCH  16  17
ENDBRANCH  15  16
ENDBRANCH  14  15
ENDBRANCH   5  14
ENDBRANCH   1   2
BRANCH   1  24
ATOM     24  C   UNL     1      25.562   8.232  48.033  1.00  0.00     0.163 A 
ATOM     25  C   UNL     1      26.510   7.221  47.883  1.00  0.00     0.052 A 
ATOM     26  C   UNL     1      24.615   8.123  49.051  1.00  0.00     0.167 A 
ATOM     27  C   UNL     1      26.497   6.114  48.743  1.00  0.00     0.030 A 
ATOM     28  C   UNL     1      24.594   7.021  49.903  1.00  0.00     0.069 A 
ATOM     29  C   UNL     1      25.545   6.007  49.759  1.00  0.00     0.044 A 
ATOM     30  F   UNL     1      23.690   9.079  49.216  1.00  0.00    -0.203 F 
BRANCH  29  31
ATOM     31  N   UNL     1      25.477   4.931  50.664  1.00  0.00    -0.325 N 
ATOM     32  C   UNL     1      24.635   3.840  50.608  1.00  0.00     0.240 C 
ATOM     33  O   UNL     1      23.803   3.571  49.754  1.00  0.00    -0.273 OA
ATOM     34  H   UNL     1      26.157   4.927  51.418  1.00  0.00     0.169 HD
BRANCH  32  35
ATOM     35  C   UNL     1      24.846   2.876  51.735  1.00  0.00     0.128 C 
ATOM     36  C   UNL     1      23.644   2.075  52.236  1.00  0.00     0.028 C 
ATOM     37  C   UNL     1      24.173   3.196  53.071  1.00  0.00     0.028 C 
BRANCH  35  38
ATOM     38  C   UNL     1      26.184   2.202  51.760  1.00  0.00     0.240 C 
ATOM     39  O   UNL     1      26.991   2.464  50.879  1.00  0.00    -0.274 OA
ATOM     40  N   UNL     1      26.329   1.325  52.815  1.00  0.00    -0.325 N 
ATOM     41  H   UNL     1      25.522   1.222  53.422  1.00  0.00     0.169 HD
BRANCH  40  42
ATOM     42  C   UNL     1      27.442   0.517  53.114  1.00  0.00     0.041 A 
ATOM     43  C   UNL     1      27.489  -0.861  52.882  1.00  0.00     0.029 A 
ATOM     44  C   UNL     1      28.560   1.150  53.674  1.00  0.00     0.029 A 
ATOM     45  C   UNL     1      28.630  -1.596  53.216  1.00  0.00     0.041 A 
ATOM     46  C   UNL     1      29.702   0.416  54.004  1.00  0.00     0.041 A 
ATOM     47  C   UNL     1      29.725  -0.953  53.775  1.00  0.00     0.123 A 
ATOM     48  F   UNL     1      30.815  -1.659  54.102  1.00  0.00    -0.207 F 
ENDBRANCH  40  42
ENDBRANCH  35  38
ENDBRANCH  32  35
ENDBRANCH  29  31
ENDBRANCH   1  24
TORSDOF 12
ENDMDL
MODEL 17
REMARK minimizedAffinity -8.94265842
REMARK minimizedRMSD -1
REMARK SMILES COc1cc2c(Oc3ccc(NC(=O)C4(C(=O)Nc5ccc(F)cc5)CC4)cc3F)ccnc2cc1OCCCN1CCOCC1
REMARK SMILES IDX 7 1 6 2 3 3 4 4 36 5 5 6 35 7 34 8 31 9 33 10 32 11 2 12
REMARK SMILES IDX 1 13 37 14 38 15 39 16 40 17 41 18 42 19 46 20 43 21 45 22
REMARK SMILES IDX 44 23 8 24 9 25 29 26 10 27 28 28 11 29 30 30 12 31 13 32
REMARK SMILES IDX 14 33 15 35 26 36 27 37 16 38 17 39 18 40 19 42 20 43 25 44
REMARK SMILES IDX 21 45 24 46 22 47 23 48
REMARK H PARENT 12 34 18 41
ROOT
ATOM      1  O   UNL     1      25.460   8.189  49.400  1.00  0.00    -0.454 OA
ENDROOT
BRANCH   1   2
ATOM      2  C   UNL     1      25.623   8.447  48.056  1.00  0.00     0.138 A 
ATOM      3  C   UNL     1      29.336   8.862  47.656  1.00  0.00     0.161 A 
ATOM      4  C   UNL     1      28.097   8.648  48.263  1.00  0.00     0.064 A 
ATOM      5  C   UNL     1      29.391   9.096  46.272  1.00  0.00     0.163 A 
ATOM      6  C   UNL     1      26.903   8.663  47.507  1.00  0.00     0.047 A 
ATOM      7  C   UNL     1      28.205   9.107  45.532  1.00  0.00     0.079 A 
ATOM      8  C   UNL     1      26.965   8.888  46.120  1.00  0.00     0.078 A 
ATOM      9  C   UNL     1      24.496   8.386  47.244  1.00  0.00     0.068 A 
ATOM     10  N   UNL     1      25.871   8.883  45.336  1.00  0.00    -0.256 NA
ATOM     11  C   UNL     1      24.672   8.621  45.901  1.00  0.00     0.115 A 
BRANCH   3  12
ATOM     12  O   UNL     1      30.537   8.861  48.321  1.00  0.00    -0.493 OA
ATOM     13  C   UNL     1      30.636   9.630  49.511  1.00  0.00     0.278 C 
ENDBRANCH   3  12
BRANCH   5  14
ATOM     14  O   UNL     1      30.644   9.288  45.752  1.00  0.00    -0.490 OA
BRANCH  14  15
ATOM     15  C   UNL     1      30.935  10.464  45.004  1.00  0.00     0.231 C 
BRANCH  15  16
ATOM     16  C   UNL     1      31.269  11.652  45.910  1.00  0.00     0.057 C 
BRANCH  16  17
ATOM     17  C   UNL     1      30.313  12.831  45.672  1.00  0.00     0.088 C 
BRANCH  17  18
ATOM     18  N   UNL     1      29.277  13.059  46.686  1.00  0.00    -0.299 NA
ATOM     19  C   UNL     1      27.967  12.481  46.339  1.00  0.00     0.113 C 
ATOM     20  C   UNL     1      29.664  12.624  48.039  1.00  0.00     0.113 C 
ATOM     21  C   UNL     1      26.915  12.850  47.397  1.00  0.00     0.175 C 
ATOM     22  C   UNL     1      28.574  12.988  49.059  1.00  0.00     0.175 C 
ATOM     23  O   UNL     1      27.312  12.405  48.702  1.00  0.00    -0.379 OA
ENDBRANCH  17  18
ENDBRANCH  16  17
ENDBRANCH  15  16
ENDBRANCH  14  15
ENDBRANCH   5  14
ENDBRANCH   1   2
BRANCH   1  24
ATOM     24  C   UNL     1      25.196   6.885  49.759  1.00  0.00     0.163 A 
ATOM     25  C   UNL     1      25.972   5.791  49.379  1.00  0.00     0.052 A 
ATOM     26  C   UNL     1      24.114   6.678  50.614  1.00  0.00     0.167 A 
ATOM     27  C   UNL     1      25.656   4.509  49.849  1.00  0.00     0.030 A 
ATOM     28  C   UNL     1      23.792   5.405  51.078  1.00  0.00     0.069 A 
ATOM     29  C   UNL     1      24.569   4.306  50.703  1.00  0.00     0.044 A 
ATOM     30  F   UNL     1      23.348   7.712  50.994  1.00  0.00    -0.203 F 
BRANCH  29  31
ATOM     31  N   UNL     1      24.198   3.051  51.220  1.00  0.00    -0.325 N 
ATOM     32  C   UNL     1      24.150   2.672  52.546  1.00  0.00     0.240 C 
ATOM     33  O   UNL     1      24.389   3.349  53.535  1.00  0.00    -0.273 OA
ATOM     34  H   UNL     1      23.883   2.357  50.550  1.00  0.00     0.169 HD
BRANCH  32  35
ATOM     35  C   UNL     1      23.698   1.256  52.736  1.00  0.00     0.128 C 
ATOM     36  C   UNL     1      22.636   0.703  51.785  1.00  0.00     0.028 C 
ATOM     37  C   UNL     1      22.256   1.032  53.194  1.00  0.00     0.028 C 
BRANCH  35  38
ATOM     38  C   UNL     1      24.751   0.308  53.223  1.00  0.00     0.240 C 
ATOM     39  O   UNL     1      24.415  -0.628  53.936  1.00  0.00    -0.274 OA
ATOM     40  N   UNL     1      26.019   0.639  52.794  1.00  0.00    -0.325 N 
ATOM     41  H   UNL     1      26.093   1.482  52.232  1.00  0.00     0.169 HD
BRANCH  40  42
ATOM     42  C   UNL     1      27.227  -0.021  53.090  1.00  0.00     0.041 A 
ATOM     43  C   UNL     1      27.465  -1.371  52.815  1.00  0.00     0.029 A 
ATOM     44  C   UNL     1      28.238   0.738  53.694  1.00  0.00     0.029 A 
ATOM     45  C   UNL     1      28.690  -1.955  53.148  1.00  0.00     0.041 A 
ATOM     46  C   UNL     1      29.463   0.154  54.025  1.00  0.00     0.041 A 
ATOM     47  C   UNL     1      29.678  -1.190  53.751  1.00  0.00     0.123 A 
ATOM     48  F   UNL     1      30.848  -1.753  54.079  1.00  0.00    -0.207 F 
ENDBRANCH  40  42
ENDBRANCH  35  38
ENDBRANCH  32  35
ENDBRANCH  29  31
ENDBRANCH   1  24
TORSDOF 12
ENDMDL
MODEL 18
REMARK minimizedAffinity -8.9326725
REMARK minimizedRMSD -1
REMARK SMILES COc1cc2c(Oc3ccc(NC(=O)C4(C(=O)Nc5ccc(F)cc5)CC4)cc3F)ccnc2cc1OCCCN1CCOCC1
REMARK SMILES IDX 7 1 6 2 3 3 4 4 36 5 5 6 35 7 34 8 31 9 33 10 32 11 2 12
REMARK SMILES IDX 1 13 37 14 38 15 39 16 40 17 41 18 42 19 46 20 43 21 45 22
REMARK SMILES IDX 44 23 8 24 9 25 29 26 10 27 28 28 11 29 30 30 12 31 13 32
REMARK SMILES IDX 14 33 15 35 26 36 27 37 16 38 17 39 18 40 19 42 20 43 25 44
REMARK SMILES IDX 21 45 24 46 22 47 23 48
REMARK H PARENT 12 34 18 41
ROOT
ATOM      1  O   UNL     1      29.203   8.964  48.131  1.00  0.00    -0.454 OA
ENDROOT
BRANCH   1   2
ATOM      2  C   UNL     1      29.481   9.182  46.799  1.00  0.00     0.138 A 
ATOM      3  C   UNL     1      32.970   7.854  46.373  1.00  0.00     0.161 A 
ATOM      4  C   UNL     1      31.766   8.207  46.983  1.00  0.00     0.064 A 
ATOM      5  C   UNL     1      33.141   8.101  45.000  1.00  0.00     0.163 A 
ATOM      6  C   UNL     1      30.722   8.808  46.244  1.00  0.00     0.047 A 
ATOM      7  C   UNL     1      32.103   8.695  44.276  1.00  0.00     0.079 A 
ATOM      8  C   UNL     1      30.896   9.044  44.869  1.00  0.00     0.078 A 
ATOM      9  C   UNL     1      28.462   9.687  46.000  1.00  0.00     0.068 A 
ATOM     10  N   UNL     1      29.931   9.583  44.100  1.00  0.00    -0.256 NA
ATOM     11  C   UNL     1      28.741   9.878  44.666  1.00  0.00     0.115 A 
BRANCH   3  12
ATOM     12  O   UNL     1      34.027   7.266  47.021  1.00  0.00    -0.493 OA
ATOM     13  C   UNL     1      34.513   7.893  48.199  1.00  0.00     0.278 C 
ENDBRANCH   3  12
BRANCH   5  14
ATOM     14  O   UNL     1      34.347   7.717  44.474  1.00  0.00    -0.490 OA
BRANCH  14  15
ATOM     15  C   UNL     1      34.394   6.978  43.258  1.00  0.00     0.231 C 
BRANCH  15  16
ATOM     16  C   UNL     1      33.612   5.666  43.354  1.00  0.00     0.057 C 
BRANCH  16  17
ATOM     17  C   UNL     1      34.420   4.578  44.078  1.00  0.00     0.088 C 
BRANCH  17  18
ATOM     18  N   UNL     1      34.131   4.376  45.503  1.00  0.00    -0.299 NA
ATOM     19  C   UNL     1      32.740   3.976  45.777  1.00  0.00     0.113 C 
ATOM     20  C   UNL     1      35.053   3.438  46.167  1.00  0.00     0.113 C 
ATOM     21  C   UNL     1      32.492   3.885  47.291  1.00  0.00     0.175 C 
ATOM     22  C   UNL     1      34.752   3.357  47.672  1.00  0.00     0.175 C 
ATOM     23  O   UNL     1      33.395   2.957  47.911  1.00  0.00    -0.379 OA
ENDBRANCH  17  18
ENDBRANCH  16  17
ENDBRANCH  15  16
ENDBRANCH  14  15
ENDBRANCH   5  14
ENDBRANCH   1   2
BRANCH   1  24
ATOM     24  C   UNL     1      28.328   7.943  48.429  1.00  0.00     0.163 A 
ATOM     25  C   UNL     1      28.513   6.613  48.053  1.00  0.00     0.052 A 
ATOM     26  C   UNL     1      27.225   8.273  49.216  1.00  0.00     0.167 A 
ATOM     27  C   UNL     1      27.595   5.634  48.459  1.00  0.00     0.030 A 
ATOM     28  C   UNL     1      26.307   7.305  49.616  1.00  0.00     0.069 A 
ATOM     29  C   UNL     1      26.490   5.970  49.245  1.00  0.00     0.044 A 
ATOM     30  F   UNL     1      27.021   9.544  49.590  1.00  0.00    -0.203 F 
BRANCH  29  31
ATOM     31  N   UNL     1      25.535   5.041  49.697  1.00  0.00    -0.325 N 
ATOM     32  C   UNL     1      24.287   4.795  49.164  1.00  0.00     0.240 C 
ATOM     33  O   UNL     1      23.770   5.308  48.182  1.00  0.00    -0.273 OA
ATOM     34  H   UNL     1      25.809   4.447  50.474  1.00  0.00     0.169 HD
BRANCH  32  35
ATOM     35  C   UNL     1      23.536   3.724  49.894  1.00  0.00     0.128 C 
ATOM     36  C   UNL     1      22.842   2.637  49.071  1.00  0.00     0.028 C 
ATOM     37  C   UNL     1      22.015   3.693  49.733  1.00  0.00     0.028 C 
BRANCH  35  38
ATOM     38  C   UNL     1      24.115   3.325  51.217  1.00  0.00     0.240 C 
ATOM     39  O   UNL     1      23.942   4.059  52.181  1.00  0.00    -0.274 OA
ATOM     40  N   UNL     1      24.810   2.134  51.167  1.00  0.00    -0.325 N 
ATOM     41  H   UNL     1      24.869   1.691  50.256  1.00  0.00     0.169 HD
BRANCH  40  42
ATOM     42  C   UNL     1      25.494   1.493  52.217  1.00  0.00     0.041 A 
ATOM     43  C   UNL     1      24.896   0.584  53.096  1.00  0.00     0.029 A 
ATOM     44  C   UNL     1      26.853   1.796  52.374  1.00  0.00     0.029 A 
ATOM     45  C   UNL     1      25.644  -0.004  54.121  1.00  0.00     0.041 A 
ATOM     46  C   UNL     1      27.600   1.206  53.396  1.00  0.00     0.041 A 
ATOM     47  C   UNL     1      26.987   0.312  54.264  1.00  0.00     0.123 A 
ATOM     48  F   UNL     1      27.700  -0.245  55.251  1.00  0.00    -0.207 F 
ENDBRANCH  40  42
ENDBRANCH  35  38
ENDBRANCH  32  35
ENDBRANCH  29  31
ENDBRANCH   1  24
TORSDOF 12
ENDMDL
MODEL 19
REMARK minimizedAffinity -8.93114758
REMARK minimizedRMSD -1
REMARK SMILES COc1cc2c(Oc3ccc(NC(=O)C4(C(=O)Nc5ccc(F)cc5)CC4)cc3F)ccnc2cc1OCCCN1CCOCC1
REMARK SMILES IDX 7 1 6 2 3 3 4 4 36 5 5 6 35 7 34 8 31 9 33 10 32 11 2 12
REMARK SMILES IDX 1 13 37 14 38 15 39 16 40 17 41 18 42 19 46 20 43 21 45 22
REMARK SMILES IDX 44 23 8 24 9 25 29 26 10 27 28 28 11 29 30 30 12 31 13 32
REMARK SMILES IDX 14 33 15 35 26 36 27 37 16 38 17 39 18 40 19 42 20 43 25 44
REMARK SMILES IDX 21 45 24 46 22 47 23 48
REMARK H PARENT 12 34 18 41
ROOT
ATOM      1  O   UNL     1      20.984   4.507  47.876  1.00  0.00    -0.454 OA
ENDROOT
BRANCH   1   2
ATOM      2  C   UNL     1      20.931   5.859  48.135  1.00  0.00     0.138 A 
ATOM      3  C   UNL     1      24.327   6.644  49.540  1.00  0.00     0.161 A 
ATOM      4  C   UNL     1      23.263   5.912  49.010  1.00  0.00     0.064 A 
ATOM      5  C   UNL     1      24.175   8.025  49.744  1.00  0.00     0.163 A 
ATOM      6  C   UNL     1      22.041   6.539  48.680  1.00  0.00     0.047 A 
ATOM      7  C   UNL     1      22.962   8.637  49.413  1.00  0.00     0.079 A 
ATOM      8  C   UNL     1      21.897   7.924  48.878  1.00  0.00     0.078 A 
ATOM      9  C   UNL     1      19.788   6.549  47.749  1.00  0.00     0.068 A 
ATOM     10  N   UNL     1      20.773   8.588  48.554  1.00  0.00    -0.256 NA
ATOM     11  C   UNL     1      19.755   7.903  47.989  1.00  0.00     0.115 A 
BRANCH   3  12
ATOM     12  O   UNL     1      25.544   6.109  49.883  1.00  0.00    -0.493 OA
ATOM     13  C   UNL     1      25.700   4.701  49.781  1.00  0.00     0.278 C 
ENDBRANCH   3  12
BRANCH   5  14
ATOM     14  O   UNL     1      25.267   8.673  50.259  1.00  0.00    -0.490 OA
BRANCH  14  15
ATOM     15  C   UNL     1      26.161   9.367  49.394  1.00  0.00     0.231 C 
BRANCH  15  16
ATOM     16  C   UNL     1      27.605   8.887  49.558  1.00  0.00     0.057 C 
BRANCH  16  17
ATOM     17  C   UNL     1      28.064   8.053  48.352  1.00  0.00     0.088 C 
BRANCH  17  18
ATOM     18  N   UNL     1      29.504   7.797  48.232  1.00  0.00    -0.299 NA
ATOM     19  C   UNL     1      30.331   8.616  49.135  1.00  0.00     0.113 C 
ATOM     20  C   UNL     1      29.868   6.377  48.383  1.00  0.00     0.113 C 
ATOM     21  C   UNL     1      31.826   8.364  48.877  1.00  0.00     0.175 C 
ATOM     22  C   UNL     1      31.373   6.175  48.144  1.00  0.00     0.175 C 
ATOM     23  O   UNL     1      32.155   6.976  49.041  1.00  0.00    -0.379 OA
ENDBRANCH  17  18
ENDBRANCH  16  17
ENDBRANCH  15  16
ENDBRANCH  14  15
ENDBRANCH   5  14
ENDBRANCH   1   2
BRANCH   1  24
ATOM     24  C   UNL     1      21.190   3.671  48.952  1.00  0.00     0.163 A 
ATOM     25  C   UNL     1      20.429   3.690  50.120  1.00  0.00     0.052 A 
ATOM     26  C   UNL     1      22.188   2.708  48.814  1.00  0.00     0.167 A 
ATOM     27  C   UNL     1      20.678   2.755  51.135  1.00  0.00     0.030 A 
ATOM     28  C   UNL     1      22.444   1.781  49.822  1.00  0.00     0.069 A 
ATOM     29  C   UNL     1      21.681   1.793  50.993  1.00  0.00     0.044 A 
ATOM     30  F   UNL     1      22.937   2.669  47.702  1.00  0.00    -0.203 F 
BRANCH  29  31
ATOM     31  N   UNL     1      21.980   0.819  51.964  1.00  0.00    -0.325 N 
ATOM     32  C   UNL     1      22.909   0.906  52.981  1.00  0.00     0.240 C 
ATOM     33  O   UNL     1      23.635   1.848  53.262  1.00  0.00    -0.273 OA
ATOM     34  H   UNL     1      21.418  -0.026  51.950  1.00  0.00     0.169 HD
BRANCH  32  35
ATOM     35  C   UNL     1      22.954  -0.319  53.841  1.00  0.00     0.128 C 
ATOM     36  C   UNL     1      21.926  -1.422  53.584  1.00  0.00     0.028 C 
ATOM     37  C   UNL     1      21.781  -0.556  54.794  1.00  0.00     0.028 C 
BRANCH  35  38
ATOM     38  C   UNL     1      24.322  -0.740  54.285  1.00  0.00     0.240 C 
ATOM     39  O   UNL     1      24.444  -1.299  55.366  1.00  0.00    -0.274 OA
ATOM     40  N   UNL     1      25.309  -0.413  53.378  1.00  0.00    -0.325 N 
ATOM     41  H   UNL     1      25.004   0.085  52.548  1.00  0.00     0.169 HD
BRANCH  40  42
ATOM     42  C   UNL     1      26.694  -0.639  53.497  1.00  0.00     0.041 A 
ATOM     43  C   UNL     1      27.364  -1.706  52.889  1.00  0.00     0.029 A 
ATOM     44  C   UNL     1      27.426   0.270  54.271  1.00  0.00     0.029 A 
ATOM     45  C   UNL     1      28.742  -1.866  53.063  1.00  0.00     0.041 A 
ATOM     46  C   UNL     1      28.803   0.111  54.442  1.00  0.00     0.041 A 
ATOM     47  C   UNL     1      29.449  -0.959  53.838  1.00  0.00     0.123 A 
ATOM     48  F   UNL     1      30.767  -1.118  54.011  1.00  0.00    -0.207 F 
ENDBRANCH  40  42
ENDBRANCH  35  38
ENDBRANCH  32  35
ENDBRANCH  29  31
ENDBRANCH   1  24
TORSDOF 12
ENDMDL
MODEL 20
REMARK minimizedAffinity -8.91340065
REMARK minimizedRMSD -1
REMARK SMILES COc1cc2c(Oc3ccc(NC(=O)C4(C(=O)Nc5ccc(F)cc5)CC4)cc3F)ccnc2cc1OCCCN1CCOCC1
REMARK SMILES IDX 7 1 6 2 3 3 4 4 36 5 5 6 35 7 34 8 31 9 33 10 32 11 2 12
REMARK SMILES IDX 1 13 37 14 38 15 39 16 40 17 41 18 42 19 46 20 43 21 45 22
REMARK SMILES IDX 44 23 8 24 9 25 29 26 10 27 28 28 11 29 30 30 12 31 13 32
REMARK SMILES IDX 14 33 15 35 26 36 27 37 16 38 17 39 18 40 19 42 20 43 25 44
REMARK SMILES IDX 21 45 24 46 22 47 23 48
REMARK H PARENT 12 34 18 41
ROOT
ATOM      1  O   UNL     1      23.901   5.118  48.578  1.00  0.00    -0.454 OA
ENDROOT
BRANCH   1   2
ATOM      2  C   UNL     1      24.012   6.462  48.858  1.00  0.00     0.138 A 
ATOM      3  C   UNL     1      27.619   7.239  48.144  1.00  0.00     0.161 A 
ATOM      4  C   UNL     1      26.436   6.512  48.281  1.00  0.00     0.064 A 
ATOM      5  C   UNL     1      27.618   8.613  48.435  1.00  0.00     0.163 A 
ATOM      6  C   UNL     1      25.242   7.137  48.707  1.00  0.00     0.047 A 
ATOM      7  C   UNL     1      26.432   9.223  48.855  1.00  0.00     0.079 A 
ATOM      8  C   UNL     1      25.244   8.514  48.988  1.00  0.00     0.078 A 
ATOM      9  C   UNL     1      22.854   7.152  49.195  1.00  0.00     0.068 A 
ATOM     10  N   UNL     1      24.136   9.178  49.366  1.00  0.00    -0.256 NA
ATOM     11  C   UNL     1      22.971   8.499  49.448  1.00  0.00     0.115 A 
BRANCH   3  12
ATOM     12  O   UNL     1      28.816   6.705  47.735  1.00  0.00    -0.493 OA
ATOM     13  C   UNL     1      29.219   5.469  48.305  1.00  0.00     0.278 C 
ENDBRANCH   3  12
BRANCH   5  14
ATOM     14  O   UNL     1      28.816   9.256  48.268  1.00  0.00    -0.490 OA
BRANCH  14  15
ATOM     15  C   UNL     1      28.911  10.376  47.394  1.00  0.00     0.231 C 
BRANCH  15  16
ATOM     16  C   UNL     1      29.558  11.583  48.078  1.00  0.00     0.057 C 
BRANCH  16  17
ATOM     17  C   UNL     1      28.552  12.343  48.956  1.00  0.00     0.088 C 
BRANCH  17  18
ATOM     18  N   UNL     1      28.033  13.609  48.426  1.00  0.00    -0.299 NA
ATOM     19  C   UNL     1      28.793  14.130  47.276  1.00  0.00     0.113 C 
ATOM     20  C   UNL     1      26.599  13.567  48.089  1.00  0.00     0.113 C 
ATOM     21  C   UNL     1      28.252  15.503  46.847  1.00  0.00     0.175 C 
ATOM     22  C   UNL     1      26.107  14.952  47.639  1.00  0.00     0.175 C 
ATOM     23  O   UNL     1      26.858  15.431  46.514  1.00  0.00    -0.379 OA
ENDBRANCH  17  18
ENDBRANCH  16  17
ENDBRANCH  15  16
ENDBRANCH  14  15
ENDBRANCH   5  14
ENDBRANCH   1   2
BRANCH   1  24
ATOM     24  C   UNL     1      23.661   4.275  49.642  1.00  0.00     0.163 A 
ATOM     25  C   UNL     1      22.462   4.223  50.350  1.00  0.00     0.052 A 
ATOM     26  C   UNL     1      24.677   3.378  49.971  1.00  0.00     0.167 A 
ATOM     27  C   UNL     1      22.294   3.285  51.378  1.00  0.00     0.030 A 
ATOM     28  C   UNL     1      24.517   2.450  50.996  1.00  0.00     0.069 A 
ATOM     29  C   UNL     1      23.315   2.391  51.706  1.00  0.00     0.044 A 
ATOM     30  F   UNL     1      25.843   3.408  49.308  1.00  0.00    -0.203 F 
BRANCH  29  31
ATOM     31  N   UNL     1      23.214   1.418  52.718  1.00  0.00    -0.325 N 
ATOM     32  C   UNL     1      22.507   0.235  52.676  1.00  0.00     0.240 C 
ATOM     33  O   UNL     1      21.853  -0.222  51.750  1.00  0.00    -0.273 OA
ATOM     34  H   UNL     1      23.761   1.577  53.559  1.00  0.00     0.169 HD
BRANCH  32  35
ATOM     35  C   UNL     1      22.631  -0.570  53.934  1.00  0.00     0.128 C 
ATOM     36  C   UNL     1      21.554  -1.613  54.235  1.00  0.00     0.028 C 
ATOM     37  C   UNL     1      21.582  -0.342  55.023  1.00  0.00     0.028 C 
BRANCH  35  38
ATOM     38  C   UNL     1      24.034  -0.883  54.357  1.00  0.00     0.240 C 
ATOM     39  O   UNL     1      24.226  -1.311  55.487  1.00  0.00    -0.274 OA
ATOM     40  N   UNL     1      24.967  -0.623  53.375  1.00  0.00    -0.325 N 
ATOM     41  H   UNL     1      24.606  -0.235  52.509  1.00  0.00     0.169 HD
BRANCH  40  42
ATOM     42  C   UNL     1      26.364  -0.780  53.453  1.00  0.00     0.041 A 
ATOM     43  C   UNL     1      27.071  -1.797  52.805  1.00  0.00     0.029 A 
ATOM     44  C   UNL     1      27.069   0.149  54.229  1.00  0.00     0.029 A 
ATOM     45  C   UNL     1      28.460  -1.890  52.940  1.00  0.00     0.041 A 
ATOM     46  C   UNL     1      28.457   0.059  54.361  1.00  0.00     0.041 A 
ATOM     47  C   UNL     1      29.140  -0.963  53.717  1.00  0.00     0.123 A 
ATOM     48  F   UNL     1      30.469  -1.058  53.853  1.00  0.00    -0.207 F 
ENDBRANCH  40  42
ENDBRANCH  35  38
ENDBRANCH  32  35
ENDBRANCH  29  31
ENDBRANCH   1  24
TORSDOF 12
ENDMDL
