MODEL 1
REMARK minimizedAffinity -8.48993778
REMARK minimizedRMSD -1
REMARK SMILES COc1cc2ncnc(Nc3ccc(F)c(Cl)c3)c2cc1OCCCN1CCOCC1
REMARK SMILES IDX 22 1 21 2 3 3 4 4 5 5 20 6 6 7 19 8 7 9 9 10 8 11 2 12 1 13
REMARK SMILES IDX 10 14 11 16 12 17 18 18 13 19 16 20 14 21 17 22 15 23 23 24
REMARK SMILES IDX 24 25 25 26 26 27 27 28 31 29 28 30 30 31 29 32
REMARK H PARENT 10 15
ROOT
ATOM      1  O   UNL     1      20.489   1.155  50.415  1.00  0.00    -0.490 OA
ENDROOT
BRANCH   1   2
ATOM      2  C   UNL     1      20.893   0.535  51.569  1.00  0.00     0.162 A 
ATOM      3  C   UNL     1      19.897   0.041  52.418  1.00  0.00     0.162 A 
ATOM      4  C   UNL     1      20.272  -0.578  53.614  1.00  0.00     0.079 A 
ATOM      5  C   UNL     1      21.604  -0.701  53.996  1.00  0.00     0.080 A 
ATOM      6  C   UNL     1      22.233   0.440  51.945  1.00  0.00     0.064 A 
ATOM      7  N   UNL     1      21.876  -1.314  55.150  1.00  0.00    -0.236 NA
ATOM      8  C   UNL     1      22.601  -0.178  53.165  1.00  0.00     0.047 A 
ATOM      9  C   UNL     1      23.166  -1.421  55.488  1.00  0.00     0.224 A 
ATOM     10  C   UNL     1      23.923  -0.327  53.634  1.00  0.00     0.141 A 
ATOM     11  N   UNL     1      24.203  -0.958  54.787  1.00  0.00    -0.219 NA
BRANCH   3  12
ATOM     12  O   UNL     1      18.605   0.188  51.983  1.00  0.00    -0.493 OA
ATOM     13  C   UNL     1      17.671  -0.819  52.349  1.00  0.00     0.278 C 
ENDBRANCH   3  12
BRANCH  10  14
ATOM     14  N   UNL     1      24.989   0.223  52.867  1.00  0.00    -0.340 N 
ATOM     15  H   UNL     1      24.760   1.186  52.637  1.00  0.00     0.168 HD
BRANCH  14  16
ATOM     16  C   UNL     1      26.378   0.048  53.063  1.00  0.00     0.041 A 
ATOM     17  C   UNL     1      26.951  -1.208  52.797  1.00  0.00     0.029 A 
ATOM     18  C   UNL     1      27.189   1.042  53.632  1.00  0.00     0.049 A 
ATOM     19  C   UNL     1      28.307  -1.445  53.036  1.00  0.00     0.043 A 
ATOM     20  C   UNL     1      28.544   0.806  53.874  1.00  0.00     0.078 A 
ATOM     21  C   UNL     1      29.097  -0.434  53.570  1.00  0.00     0.141 A 
ATOM     22  Cl  UNL     1      29.512   2.054  54.563  1.00  0.00    -0.081 Cl
ATOM     23  F   UNL     1      30.395  -0.684  53.799  1.00  0.00    -0.205 F 
ENDBRANCH  14  16
ENDBRANCH  10  14
ENDBRANCH   1   2
BRANCH   1  24
ATOM     24  C   UNL     1      21.308   0.894  49.270  1.00  0.00     0.231 C 
BRANCH  24  25
ATOM     25  C   UNL     1      21.799   2.228  48.709  1.00  0.00     0.057 C 
BRANCH  25  26
ATOM     26  C   UNL     1      21.281   3.409  49.543  1.00  0.00     0.088 C 
BRANCH  26  27
ATOM     27  N   UNL     1      22.378   4.149  50.184  1.00  0.00    -0.299 NA
ATOM     28  C   UNL     1      22.326   3.972  51.653  1.00  0.00     0.113 C 
ATOM     29  C   UNL     1      23.714   3.769  49.668  1.00  0.00     0.113 C 
ATOM     30  C   UNL     1      23.679   4.272  52.313  1.00  0.00     0.175 C 
ATOM     31  C   UNL     1      24.491   2.819  50.596  1.00  0.00     0.175 C 
ATOM     32  O   UNL     1      24.707   3.359  51.907  1.00  0.00    -0.379 OA
ENDBRANCH  26  27
ENDBRANCH  25  26
ENDBRANCH  24  25
ENDBRANCH   1  24
TORSDOF 8
ENDMDL
MODEL 2
REMARK minimizedAffinity -8.48519802
REMARK minimizedRMSD -1
REMARK SMILES COc1cc2ncnc(Nc3ccc(F)c(Cl)c3)c2cc1OCCCN1CCOCC1
REMARK SMILES IDX 22 1 21 2 3 3 4 4 5 5 20 6 6 7 19 8 7 9 9 10 8 11 2 12 1 13
REMARK SMILES IDX 10 14 11 16 12 17 18 18 13 19 16 20 14 21 17 22 15 23 23 24
REMARK SMILES IDX 24 25 25 26 26 27 27 28 31 29 28 30 30 31 29 32
REMARK H PARENT 10 15
ROOT
ATOM      1  O   UNL     1      20.330   1.098  50.312  1.00  0.00    -0.490 OA
ENDROOT
BRANCH   1   2
ATOM      2  C   UNL     1      20.732   0.500  51.478  1.00  0.00     0.162 A 
ATOM      3  C   UNL     1      19.734   0.047  52.348  1.00  0.00     0.162 A 
ATOM      4  C   UNL     1      20.107  -0.548  53.556  1.00  0.00     0.079 A 
ATOM      5  C   UNL     1      21.439  -0.687  53.930  1.00  0.00     0.080 A 
ATOM      6  C   UNL     1      22.073   0.389  51.845  1.00  0.00     0.064 A 
ATOM      7  N   UNL     1      21.710  -1.275  55.098  1.00  0.00    -0.236 NA
ATOM      8  C   UNL     1      22.439  -0.205  53.078  1.00  0.00     0.047 A 
ATOM      9  C   UNL     1      23.000  -1.398  55.427  1.00  0.00     0.224 A 
ATOM     10  C   UNL     1      23.762  -0.367  53.540  1.00  0.00     0.141 A 
ATOM     11  N   UNL     1      24.040  -0.973  54.707  1.00  0.00    -0.219 NA
BRANCH   3  12
ATOM     12  O   UNL     1      18.441   0.208  51.919  1.00  0.00    -0.493 OA
ATOM     13  C   UNL     1      17.516  -0.830  52.221  1.00  0.00     0.278 C 
ENDBRANCH   3  12
BRANCH  10  14
ATOM     14  N   UNL     1      24.832   0.143  52.750  1.00  0.00    -0.340 N 
ATOM     15  H   UNL     1      24.534   1.016  52.326  1.00  0.00     0.168 HD
BRANCH  14  16
ATOM     16  C   UNL     1      26.211   0.155  53.064  1.00  0.00     0.041 A 
ATOM     17  C   UNL     1      26.843   1.387  53.308  1.00  0.00     0.029 A 
ATOM     18  C   UNL     1      27.003  -1.003  53.020  1.00  0.00     0.049 A 
ATOM     19  C   UNL     1      28.216   1.453  53.559  1.00  0.00     0.043 A 
ATOM     20  C   UNL     1      28.376  -0.938  53.270  1.00  0.00     0.078 A 
ATOM     21  C   UNL     1      28.974   0.288  53.543  1.00  0.00     0.141 A 
ATOM     22  Cl  UNL     1      29.315  -2.382  53.218  1.00  0.00    -0.081 Cl
ATOM     23  F   UNL     1      30.291   0.374  53.780  1.00  0.00    -0.205 F 
ENDBRANCH  14  16
ENDBRANCH  10  14
ENDBRANCH   1   2
BRANCH   1  24
ATOM     24  C   UNL     1      21.285   1.046  49.246  1.00  0.00     0.231 C 
BRANCH  24  25
ATOM     25  C   UNL     1      21.643   2.477  48.845  1.00  0.00     0.057 C 
BRANCH  25  26
ATOM     26  C   UNL     1      23.129   2.774  49.101  1.00  0.00     0.088 C 
BRANCH  26  27
ATOM     27  N   UNL     1      23.313   4.011  49.875  1.00  0.00    -0.299 NA
ATOM     28  C   UNL     1      22.033   4.426  50.491  1.00  0.00     0.113 C 
ATOM     29  C   UNL     1      24.368   3.897  50.909  1.00  0.00     0.113 C 
ATOM     30  C   UNL     1      22.251   5.372  51.680  1.00  0.00     0.175 C 
ATOM     31  C   UNL     1      23.822   3.690  52.332  1.00  0.00     0.175 C 
ATOM     32  O   UNL     1      22.950   4.745  52.764  1.00  0.00    -0.379 OA
ENDBRANCH  26  27
ENDBRANCH  25  26
ENDBRANCH  24  25
ENDBRANCH   1  24
TORSDOF 8
ENDMDL
MODEL 3
REMARK minimizedAffinity -8.27301407
REMARK minimizedRMSD -1
REMARK SMILES COc1cc2ncnc(Nc3ccc(F)c(Cl)c3)c2cc1OCCCN1CCOCC1
REMARK SMILES IDX 22 1 21 2 3 3 4 4 5 5 20 6 6 7 19 8 7 9 9 10 8 11 2 12 1 13
REMARK SMILES IDX 10 14 11 16 12 17 18 18 13 19 16 20 14 21 17 22 15 23 23 24
REMARK SMILES IDX 24 25 25 26 26 27 27 28 31 29 28 30 30 31 29 32
REMARK H PARENT 10 15
ROOT
ATOM      1  O   UNL     1      21.181   4.029  50.838  1.00  0.00    -0.490 OA
ENDROOT
BRANCH   1   2
ATOM      2  C   UNL     1      21.313   2.936  51.654  1.00  0.00     0.162 A 
ATOM      3  C   UNL     1      20.191   2.544  52.393  1.00  0.00     0.162 A 
ATOM      4  C   UNL     1      20.296   1.446  53.253  1.00  0.00     0.079 A 
ATOM      5  C   UNL     1      21.486   0.744  53.411  1.00  0.00     0.080 A 
ATOM      6  C   UNL     1      22.521   2.257  51.816  1.00  0.00     0.064 A 
ATOM      7  N   UNL     1      21.498  -0.298  54.246  1.00  0.00    -0.236 NA
ATOM      8  C   UNL     1      22.619   1.154  52.700  1.00  0.00     0.047 A 
ATOM      9  C   UNL     1      22.656  -0.956  54.374  1.00  0.00     0.224 A 
ATOM     10  C   UNL     1      23.789   0.402  52.932  1.00  0.00     0.141 A 
ATOM     11  N   UNL     1      23.802  -0.658  53.759  1.00  0.00    -0.219 NA
BRANCH   3  12
ATOM     12  O   UNL     1      19.048   3.272  52.188  1.00  0.00    -0.493 OA
ATOM     13  C   UNL     1      18.023   2.677  51.402  1.00  0.00     0.278 C 
ENDBRANCH   3  12
BRANCH  10  14
ATOM     14  N   UNL     1      24.995   0.789  52.281  1.00  0.00    -0.340 N 
ATOM     15  H   UNL     1      24.839   1.675  51.810  1.00  0.00     0.168 HD
BRANCH  14  16
ATOM     16  C   UNL     1      26.317   0.679  52.769  1.00  0.00     0.041 A 
ATOM     17  C   UNL     1      27.001   1.846  53.152  1.00  0.00     0.029 A 
ATOM     18  C   UNL     1      27.020  -0.535  52.771  1.00  0.00     0.049 A 
ATOM     19  C   UNL     1      28.330   1.793  53.581  1.00  0.00     0.043 A 
ATOM     20  C   UNL     1      28.349  -0.590  53.198  1.00  0.00     0.078 A 
ATOM     21  C   UNL     1      28.995   0.573  53.605  1.00  0.00     0.141 A 
ATOM     22  Cl  UNL     1      29.178  -2.101  53.198  1.00  0.00    -0.081 Cl
ATOM     23  F   UNL     1      30.272   0.545  54.013  1.00  0.00    -0.205 F 
ENDBRANCH  14  16
ENDBRANCH  10  14
ENDBRANCH   1   2
BRANCH   1  24
ATOM     24  C   UNL     1      22.054   5.121  51.144  1.00  0.00     0.231 C 
BRANCH  24  25
ATOM     25  C   UNL     1      22.329   5.899  49.858  1.00  0.00     0.057 C 
BRANCH  25  26
ATOM     26  C   UNL     1      23.415   5.216  49.013  1.00  0.00     0.088 C 
BRANCH  26  27
ATOM     27  N   UNL     1      24.600   4.876  49.815  1.00  0.00    -0.299 NA
ATOM     28  C   UNL     1      25.081   3.520  49.469  1.00  0.00     0.113 C 
ATOM     29  C   UNL     1      25.697   5.861  49.677  1.00  0.00     0.113 C 
ATOM     30  C   UNL     1      26.548   3.313  49.871  1.00  0.00     0.175 C 
ATOM     31  C   UNL     1      26.829   5.403  48.741  1.00  0.00     0.175 C 
ATOM     32  O   UNL     1      27.443   4.174  49.154  1.00  0.00    -0.379 OA
ENDBRANCH  26  27
ENDBRANCH  25  26
ENDBRANCH  24  25
ENDBRANCH   1  24
TORSDOF 8
ENDMDL
MODEL 4
REMARK minimizedAffinity -8.22340393
REMARK minimizedRMSD -1
REMARK SMILES COc1cc2ncnc(Nc3ccc(F)c(Cl)c3)c2cc1OCCCN1CCOCC1
REMARK SMILES IDX 22 1 21 2 3 3 4 4 5 5 20 6 6 7 19 8 7 9 9 10 8 11 2 12 1 13
REMARK SMILES IDX 10 14 11 16 12 17 18 18 13 19 16 20 14 21 17 22 15 23 23 24
REMARK SMILES IDX 24 25 25 26 26 27 27 28 31 29 28 30 30 31 29 32
REMARK H PARENT 10 15
ROOT
ATOM      1  O   UNL     1      26.874   2.564  50.556  1.00  0.00    -0.490 OA
ENDROOT
BRANCH   1   2
ATOM      2  C   UNL     1      26.051   3.630  50.300  1.00  0.00     0.162 A 
ATOM      3  C   UNL     1      26.482   4.565  49.353  1.00  0.00     0.162 A 
ATOM      4  C   UNL     1      25.678   5.676  49.082  1.00  0.00     0.079 A 
ATOM      5  C   UNL     1      24.471   5.890  49.740  1.00  0.00     0.080 A 
ATOM      6  C   UNL     1      24.854   3.839  50.984  1.00  0.00     0.064 A 
ATOM      7  N   UNL     1      23.759   6.972  49.415  1.00  0.00    -0.236 NA
ATOM      8  C   UNL     1      24.053   4.975  50.712  1.00  0.00     0.047 A 
ATOM      9  C   UNL     1      22.601   7.149  50.061  1.00  0.00     0.224 A 
ATOM     10  C   UNL     1      22.829   5.275  51.344  1.00  0.00     0.141 A 
ATOM     11  N   UNL     1      22.100   6.355  51.009  1.00  0.00    -0.219 NA
BRANCH   3  12
ATOM     12  O   UNL     1      27.677   4.293  48.737  1.00  0.00    -0.493 OA
ATOM     13  C   UNL     1      28.477   5.400  48.339  1.00  0.00     0.278 C 
ENDBRANCH   3  12
BRANCH  10  14
ATOM     14  N   UNL     1      22.360   4.416  52.378  1.00  0.00    -0.340 N 
ATOM     15  H   UNL     1      21.990   4.989  53.131  1.00  0.00     0.168 HD
BRANCH  14  16
ATOM     16  C   UNL     1      21.647   3.203  52.241  1.00  0.00     0.041 A 
ATOM     17  C   UNL     1      20.273   3.250  51.951  1.00  0.00     0.029 A 
ATOM     18  C   UNL     1      22.230   1.954  52.506  1.00  0.00     0.049 A 
ATOM     19  C   UNL     1      19.515   2.078  51.869  1.00  0.00     0.043 A 
ATOM     20  C   UNL     1      21.474   0.783  52.426  1.00  0.00     0.078 A 
ATOM     21  C   UNL     1      20.122   0.850  52.103  1.00  0.00     0.141 A 
ATOM     22  Cl  UNL     1      22.225  -0.734  52.747  1.00  0.00    -0.081 Cl
ATOM     23  F   UNL     1      19.376  -0.262  52.026  1.00  0.00    -0.205 F 
ENDBRANCH  14  16
ENDBRANCH  10  14
ENDBRANCH   1   2
BRANCH   1  24
ATOM     24  C   UNL     1      26.916   2.149  51.925  1.00  0.00     0.231 C 
BRANCH  24  25
ATOM     25  C   UNL     1      26.444   0.697  52.008  1.00  0.00     0.057 C 
BRANCH  25  26
ATOM     26  C   UNL     1      26.147   0.287  53.458  1.00  0.00     0.088 C 
BRANCH  26  27
ATOM     27  N   UNL     1      27.215  -0.555  54.018  1.00  0.00    -0.299 NA
ATOM     28  C   UNL     1      27.884  -1.318  52.940  1.00  0.00     0.113 C 
ATOM     29  C   UNL     1      28.213   0.214  54.797  1.00  0.00     0.113 C 
ATOM     30  C   UNL     1      29.279  -1.799  53.360  1.00  0.00     0.175 C 
ATOM     31  C   UNL     1      29.522   0.483  54.036  1.00  0.00     0.175 C 
ATOM     32  O   UNL     1      30.185  -0.715  53.608  1.00  0.00    -0.379 OA
ENDBRANCH  26  27
ENDBRANCH  25  26
ENDBRANCH  24  25
ENDBRANCH   1  24
TORSDOF 8
ENDMDL
MODEL 5
REMARK minimizedAffinity -8.08552551
REMARK minimizedRMSD -1
REMARK SMILES COc1cc2ncnc(Nc3ccc(F)c(Cl)c3)c2cc1OCCCN1CCOCC1
REMARK SMILES IDX 22 1 21 2 3 3 4 4 5 5 20 6 6 7 19 8 7 9 9 10 8 11 2 12 1 13
REMARK SMILES IDX 10 14 11 16 12 17 18 18 13 19 16 20 14 21 17 22 15 23 23 24
REMARK SMILES IDX 24 25 25 26 26 27 27 28 31 29 28 30 30 31 29 32
REMARK H PARENT 10 15
ROOT
ATOM      1  O   UNL     1      23.028   0.470  53.718  1.00  0.00    -0.490 OA
ENDROOT
BRANCH   1   2
ATOM      2  C   UNL     1      22.554   0.821  52.480  1.00  0.00     0.162 A 
ATOM      3  C   UNL     1      21.330   0.275  52.080  1.00  0.00     0.162 A 
ATOM      4  C   UNL     1      20.827   0.595  50.815  1.00  0.00     0.079 A 
ATOM      5  C   UNL     1      21.515   1.422  49.935  1.00  0.00     0.080 A 
ATOM      6  C   UNL     1      23.269   1.636  51.603  1.00  0.00     0.064 A 
ATOM      7  N   UNL     1      20.960   1.684  48.749  1.00  0.00    -0.236 NA
ATOM      8  C   UNL     1      22.756   1.943  50.319  1.00  0.00     0.047 A 
ATOM      9  C   UNL     1      21.644   2.486  47.926  1.00  0.00     0.224 A 
ATOM     10  C   UNL     1      23.397   2.756  49.362  1.00  0.00     0.141 A 
ATOM     11  N   UNL     1      22.834   3.035  48.173  1.00  0.00    -0.219 NA
BRANCH   3  12
ATOM     12  O   UNL     1      20.698  -0.528  52.995  1.00  0.00    -0.493 OA
ATOM     13  C   UNL     1      19.278  -0.480  53.040  1.00  0.00     0.278 C 
ENDBRANCH   3  12
BRANCH  10  14
ATOM     14  N   UNL     1      24.686   3.283  49.660  1.00  0.00    -0.340 N 
ATOM     15  H   UNL     1      25.378   2.767  49.125  1.00  0.00     0.168 HD
BRANCH  14  16
ATOM     16  C   UNL     1      25.052   4.639  49.822  1.00  0.00     0.041 A 
ATOM     17  C   UNL     1      24.333   5.435  50.730  1.00  0.00     0.029 A 
ATOM     18  C   UNL     1      26.025   5.256  49.021  1.00  0.00     0.049 A 
ATOM     19  C   UNL     1      24.618   6.795  50.877  1.00  0.00     0.043 A 
ATOM     20  C   UNL     1      26.310   6.616  49.165  1.00  0.00     0.078 A 
ATOM     21  C   UNL     1      25.609   7.377  50.095  1.00  0.00     0.141 A 
ATOM     22  Cl  UNL     1      27.520   7.338  48.172  1.00  0.00    -0.081 Cl
ATOM     23  F   UNL     1      25.863   8.685  50.246  1.00  0.00    -0.205 F 
ENDBRANCH  14  16
ENDBRANCH  10  14
ENDBRANCH   1   2
BRANCH   1  24
ATOM     24  C   UNL     1      23.882  -0.679  53.734  1.00  0.00     0.231 C 
BRANCH  24  25
ATOM     25  C   UNL     1      25.321  -0.211  53.948  1.00  0.00     0.057 C 
BRANCH  25  26
ATOM     26  C   UNL     1      26.223  -0.619  52.773  1.00  0.00     0.088 C 
BRANCH  26  27
ATOM     27  N   UNL     1      27.444   0.198  52.711  1.00  0.00    -0.299 NA
ATOM     28  C   UNL     1      27.153   1.587  53.131  1.00  0.00     0.113 C 
ATOM     29  C   UNL     1      28.556  -0.359  53.515  1.00  0.00     0.113 C 
ATOM     30  C   UNL     1      28.423   2.330  53.569  1.00  0.00     0.175 C 
ATOM     31  C   UNL     1      28.761   0.348  54.866  1.00  0.00     0.175 C 
ATOM     32  O   UNL     1      29.025   1.752  54.735  1.00  0.00    -0.379 OA
ENDBRANCH  26  27
ENDBRANCH  25  26
ENDBRANCH  24  25
ENDBRANCH   1  24
TORSDOF 8
ENDMDL
MODEL 6
REMARK minimizedAffinity -8.05472279
REMARK minimizedRMSD -1
REMARK SMILES COc1cc2ncnc(Nc3ccc(F)c(Cl)c3)c2cc1OCCCN1CCOCC1
REMARK SMILES IDX 22 1 21 2 3 3 4 4 5 5 20 6 6 7 19 8 7 9 9 10 8 11 2 12 1 13
REMARK SMILES IDX 10 14 11 16 12 17 18 18 13 19 16 20 14 21 17 22 15 23 23 24
REMARK SMILES IDX 24 25 25 26 26 27 27 28 31 29 28 30 30 31 29 32
REMARK H PARENT 10 15
ROOT
ATOM      1  O   UNL     1      24.176   0.548  52.758  1.00  0.00    -0.490 OA
ENDROOT
BRANCH   1   2
ATOM      2  C   UNL     1      22.982   1.199  52.583  1.00  0.00     0.162 A 
ATOM      3  C   UNL     1      21.905   0.796  53.378  1.00  0.00     0.162 A 
ATOM      4  C   UNL     1      20.667   1.424  53.211  1.00  0.00     0.079 A 
ATOM      5  C   UNL     1      20.468   2.423  52.265  1.00  0.00     0.080 A 
ATOM      6  C   UNL     1      22.797   2.186  51.614  1.00  0.00     0.064 A 
ATOM      7  N   UNL     1      19.257   2.978  52.176  1.00  0.00    -0.236 NA
ATOM      8  C   UNL     1      21.535   2.806  51.444  1.00  0.00     0.047 A 
ATOM      9  C   UNL     1      19.098   3.939  51.260  1.00  0.00     0.224 A 
ATOM     10  C   UNL     1      21.246   3.812  50.499  1.00  0.00     0.141 A 
ATOM     11  N   UNL     1      20.032   4.384  50.418  1.00  0.00    -0.219 NA
BRANCH   3  12
ATOM     12  O   UNL     1      22.166  -0.190  54.295  1.00  0.00    -0.493 OA
ATOM     13  C   UNL     1      21.243  -1.268  54.381  1.00  0.00     0.278 C 
ENDBRANCH   3  12
BRANCH  10  14
ATOM     14  N   UNL     1      22.268   4.220  49.596  1.00  0.00    -0.340 N 
ATOM     15  H   UNL     1      21.843   4.416  48.694  1.00  0.00     0.168 HD
BRANCH  14  16
ATOM     16  C   UNL     1      23.364   5.074  49.856  1.00  0.00     0.041 A 
ATOM     17  C   UNL     1      23.177   6.189  50.691  1.00  0.00     0.029 A 
ATOM     18  C   UNL     1      24.603   4.924  49.214  1.00  0.00     0.049 A 
ATOM     19  C   UNL     1      24.215   7.095  50.925  1.00  0.00     0.043 A 
ATOM     20  C   UNL     1      25.641   5.829  49.446  1.00  0.00     0.078 A 
ATOM     21  C   UNL     1      25.443   6.906  50.303  1.00  0.00     0.141 A 
ATOM     22  Cl  UNL     1      27.153   5.607  48.649  1.00  0.00    -0.081 Cl
ATOM     23  F   UNL     1      26.425   7.791  50.536  1.00  0.00    -0.205 F 
ENDBRANCH  14  16
ENDBRANCH  10  14
ENDBRANCH   1   2
BRANCH   1  24
ATOM     24  C   UNL     1      25.235   0.986  51.900  1.00  0.00     0.231 C 
BRANCH  24  25
ATOM     25  C   UNL     1      26.414   0.025  52.054  1.00  0.00     0.057 C 
BRANCH  25  26
ATOM     26  C   UNL     1      26.257  -0.856  53.302  1.00  0.00     0.088 C 
BRANCH  26  27
ATOM     27  N   UNL     1      27.523  -0.992  54.038  1.00  0.00    -0.299 NA
ATOM     28  C   UNL     1      28.616  -1.368  53.112  1.00  0.00     0.113 C 
ATOM     29  C   UNL     1      27.890   0.228  54.795  1.00  0.00     0.113 C 
ATOM     30  C   UNL     1      29.997  -1.035  53.691  1.00  0.00     0.175 C 
ATOM     31  C   UNL     1      28.968   1.084  54.109  1.00  0.00     0.175 C 
ATOM     32  O   UNL     1      30.193   0.374  53.877  1.00  0.00    -0.379 OA
ENDBRANCH  26  27
ENDBRANCH  25  26
ENDBRANCH  24  25
ENDBRANCH   1  24
TORSDOF 8
ENDMDL
MODEL 7
REMARK minimizedAffinity -8.04547405
REMARK minimizedRMSD -1
REMARK SMILES COc1cc2ncnc(Nc3ccc(F)c(Cl)c3)c2cc1OCCCN1CCOCC1
REMARK SMILES IDX 22 1 21 2 3 3 4 4 5 5 20 6 6 7 19 8 7 9 9 10 8 11 2 12 1 13
REMARK SMILES IDX 10 14 11 16 12 17 18 18 13 19 16 20 14 21 17 22 15 23 23 24
REMARK SMILES IDX 24 25 25 26 26 27 27 28 31 29 28 30 30 31 29 32
REMARK H PARENT 10 15
ROOT
ATOM      1  O   UNL     1      24.446   1.288  52.946  1.00  0.00    -0.490 OA
ENDROOT
BRANCH   1   2
ATOM      2  C   UNL     1      23.538   2.213  52.497  1.00  0.00     0.162 A 
ATOM      3  C   UNL     1      22.218   1.786  52.318  1.00  0.00     0.162 A 
ATOM      4  C   UNL     1      21.271   2.697  51.841  1.00  0.00     0.079 A 
ATOM      5  C   UNL     1      21.605   4.008  51.519  1.00  0.00     0.080 A 
ATOM      6  C   UNL     1      23.897   3.518  52.160  1.00  0.00     0.064 A 
ATOM      7  N   UNL     1      20.638   4.816  51.078  1.00  0.00    -0.236 NA
ATOM      8  C   UNL     1      22.932   4.429  51.665  1.00  0.00     0.047 A 
ATOM      9  C   UNL     1      20.989   6.072  50.781  1.00  0.00     0.224 A 
ATOM     10  C   UNL     1      23.190   5.766  51.299  1.00  0.00     0.141 A 
ATOM     11  N   UNL     1      22.216   6.588  50.870  1.00  0.00    -0.219 NA
BRANCH   3  12
ATOM     12  O   UNL     1      21.952   0.484  52.658  1.00  0.00    -0.493 OA
ATOM     13  C   UNL     1      21.000   0.257  53.689  1.00  0.00     0.278 C 
ENDBRANCH   3  12
BRANCH  10  14
ATOM     14  N   UNL     1      24.526   6.253  51.373  1.00  0.00    -0.340 N 
ATOM     15  H   UNL     1      24.956   5.889  52.218  1.00  0.00     0.168 HD
BRANCH  14  16
ATOM     16  C   UNL     1      25.461   6.381  50.321  1.00  0.00     0.041 A 
ATOM     17  C   UNL     1      25.960   5.219  49.707  1.00  0.00     0.029 A 
ATOM     18  C   UNL     1      26.008   7.619  49.947  1.00  0.00     0.049 A 
ATOM     19  C   UNL     1      26.932   5.295  48.706  1.00  0.00     0.043 A 
ATOM     20  C   UNL     1      26.981   7.696  48.948  1.00  0.00     0.078 A 
ATOM     21  C   UNL     1      27.435   6.535  48.330  1.00  0.00     0.141 A 
ATOM     22  Cl  UNL     1      27.622   9.234  48.507  1.00  0.00    -0.081 Cl
ATOM     23  F   UNL     1      28.373   6.586  47.373  1.00  0.00    -0.205 F 
ENDBRANCH  14  16
ENDBRANCH  10  14
ENDBRANCH   1   2
BRANCH   1  24
ATOM     24  C   UNL     1      25.581   1.093  52.096  1.00  0.00     0.231 C 
BRANCH  24  25
ATOM     25  C   UNL     1      26.158  -0.296  52.367  1.00  0.00     0.057 C 
BRANCH  25  26
ATOM     26  C   UNL     1      26.223  -0.590  53.873  1.00  0.00     0.088 C 
BRANCH  26  27
ATOM     27  N   UNL     1      27.602  -0.825  54.326  1.00  0.00    -0.299 NA
ATOM     28  C   UNL     1      28.424  -1.352  53.213  1.00  0.00     0.113 C 
ATOM     29  C   UNL     1      28.236   0.381  54.907  1.00  0.00     0.113 C 
ATOM     30  C   UNL     1      29.923  -1.139  53.459  1.00  0.00     0.175 C 
ATOM     31  C   UNL     1      29.211   1.091  53.951  1.00  0.00     0.175 C 
ATOM     32  O   UNL     1      30.284   0.249  53.507  1.00  0.00    -0.379 OA
ENDBRANCH  26  27
ENDBRANCH  25  26
ENDBRANCH  24  25
ENDBRANCH   1  24
TORSDOF 8
ENDMDL
MODEL 8
REMARK minimizedAffinity -7.93524027
REMARK minimizedRMSD -1
REMARK SMILES COc1cc2ncnc(Nc3ccc(F)c(Cl)c3)c2cc1OCCCN1CCOCC1
REMARK SMILES IDX 22 1 21 2 3 3 4 4 5 5 20 6 6 7 19 8 7 9 9 10 8 11 2 12 1 13
REMARK SMILES IDX 10 14 11 16 12 17 18 18 13 19 16 20 14 21 17 22 15 23 23 24
REMARK SMILES IDX 24 25 25 26 26 27 27 28 31 29 28 30 30 31 29 32
REMARK H PARENT 10 15
ROOT
ATOM      1  O   UNL     1      21.823   5.032  52.198  1.00  0.00    -0.490 OA
ENDROOT
BRANCH   1   2
ATOM      2  C   UNL     1      22.963   5.143  51.445  1.00  0.00     0.162 A 
ATOM      3  C   UNL     1      23.157   6.335  50.740  1.00  0.00     0.162 A 
ATOM      4  C   UNL     1      24.299   6.474  49.944  1.00  0.00     0.079 A 
ATOM      5  C   UNL     1      25.237   5.455  49.816  1.00  0.00     0.080 A 
ATOM      6  C   UNL     1      23.883   4.102  51.312  1.00  0.00     0.064 A 
ATOM      7  N   UNL     1      26.304   5.673  49.044  1.00  0.00    -0.236 NA
ATOM      8  C   UNL     1      25.029   4.248  50.493  1.00  0.00     0.047 A 
ATOM      9  C   UNL     1      27.191   4.676  48.944  1.00  0.00     0.224 A 
ATOM     10  C   UNL     1      26.016   3.262  50.295  1.00  0.00     0.141 A 
ATOM     11  N   UNL     1      27.101   3.482  49.531  1.00  0.00    -0.219 NA
BRANCH   3  12
ATOM     12  O   UNL     1      22.200   7.302  50.912  1.00  0.00    -0.493 OA
ATOM     13  C   UNL     1      21.753   7.997  49.755  1.00  0.00     0.278 C 
ENDBRANCH   3  12
BRANCH  10  14
ATOM     14  N   UNL     1      25.850   1.989  50.912  1.00  0.00    -0.340 N 
ATOM     15  H   UNL     1      25.457   1.347  50.230  1.00  0.00     0.168 HD
BRANCH  14  16
ATOM     16  C   UNL     1      26.733   1.334  51.800  1.00  0.00     0.041 A 
ATOM     17  C   UNL     1      26.636  -0.060  51.953  1.00  0.00     0.029 A 
ATOM     18  C   UNL     1      27.622   2.034  52.630  1.00  0.00     0.049 A 
ATOM     19  C   UNL     1      27.446  -0.742  52.865  1.00  0.00     0.043 A 
ATOM     20  C   UNL     1      28.431   1.355  53.544  1.00  0.00     0.078 A 
ATOM     21  C   UNL     1      28.343  -0.030  53.653  1.00  0.00     0.141 A 
ATOM     22  Cl  UNL     1      29.520   2.246  54.539  1.00  0.00    -0.081 Cl
ATOM     23  F   UNL     1      29.106  -0.702  54.528  1.00  0.00    -0.205 F 
ENDBRANCH  14  16
ENDBRANCH  10  14
ENDBRANCH   1   2
BRANCH   1  24
ATOM     24  C   UNL     1      20.842   4.128  51.679  1.00  0.00     0.231 C 
BRANCH  24  25
ATOM     25  C   UNL     1      20.689   2.964  52.658  1.00  0.00     0.057 C 
BRANCH  25  26
ATOM     26  C   UNL     1      20.049   1.743  51.979  1.00  0.00     0.088 C 
BRANCH  26  27
ATOM     27  N   UNL     1      20.848   0.525  52.181  1.00  0.00    -0.299 NA
ATOM     28  C   UNL     1      22.274   0.873  52.375  1.00  0.00     0.113 C 
ATOM     29  C   UNL     1      20.364  -0.307  53.307  1.00  0.00     0.113 C 
ATOM     30  C   UNL     1      23.047  -0.253  53.076  1.00  0.00     0.175 C 
ATOM     31  C   UNL     1      21.198  -0.159  54.591  1.00  0.00     0.175 C 
ATOM     32  O   UNL     1      22.581  -0.495  54.410  1.00  0.00    -0.379 OA
ENDBRANCH  26  27
ENDBRANCH  25  26
ENDBRANCH  24  25
ENDBRANCH   1  24
TORSDOF 8
ENDMDL
MODEL 9
REMARK minimizedAffinity -7.87534666
REMARK minimizedRMSD -1
REMARK SMILES COc1cc2ncnc(Nc3ccc(F)c(Cl)c3)c2cc1OCCCN1CCOCC1
REMARK SMILES IDX 22 1 21 2 3 3 4 4 5 5 20 6 6 7 19 8 7 9 9 10 8 11 2 12 1 13
REMARK SMILES IDX 10 14 11 16 12 17 18 18 13 19 16 20 14 21 17 22 15 23 23 24
REMARK SMILES IDX 24 25 25 26 26 27 27 28 31 29 28 30 30 31 29 32
REMARK H PARENT 10 15
ROOT
ATOM      1  O   UNL     1      26.810   1.622  51.135  1.00  0.00    -0.490 OA
ENDROOT
BRANCH   1   2
ATOM      2  C   UNL     1      26.305   0.966  52.228  1.00  0.00     0.162 A 
ATOM      3  C   UNL     1      27.194   0.658  53.263  1.00  0.00     0.162 A 
ATOM      4  C   UNL     1      26.717  -0.029  54.384  1.00  0.00     0.079 A 
ATOM      5  C   UNL     1      25.392  -0.434  54.492  1.00  0.00     0.080 A 
ATOM      6  C   UNL     1      24.976   0.550  52.310  1.00  0.00     0.064 A 
ATOM      7  N   UNL     1      25.016  -1.077  55.601  1.00  0.00    -0.236 NA
ATOM      8  C   UNL     1      24.507  -0.158  53.444  1.00  0.00     0.047 A 
ATOM      9  C   UNL     1      23.734  -1.450  55.678  1.00  0.00     0.224 A 
ATOM     10  C   UNL     1      23.187  -0.618  53.625  1.00  0.00     0.141 A 
ATOM     11  N   UNL     1      22.801  -1.253  54.746  1.00  0.00    -0.219 NA
BRANCH   3  12
ATOM     12  O   UNL     1      28.485   1.090  53.098  1.00  0.00    -0.493 OA
ATOM     13  C   UNL     1      29.194   1.497  54.261  1.00  0.00     0.278 C 
ENDBRANCH   3  12
BRANCH  10  14
ATOM     14  N   UNL     1      22.240  -0.418  52.580  1.00  0.00    -0.340 N 
ATOM     15  H   UNL     1      21.802  -1.309  52.364  1.00  0.00     0.168 HD
BRANCH  14  16
ATOM     16  C   UNL     1      21.340   0.661  52.421  1.00  0.00     0.041 A 
ATOM     17  C   UNL     1      19.981   0.386  52.187  1.00  0.00     0.029 A 
ATOM     18  C   UNL     1      21.769   1.996  52.363  1.00  0.00     0.049 A 
ATOM     19  C   UNL     1      19.067   1.418  51.962  1.00  0.00     0.043 A 
ATOM     20  C   UNL     1      20.856   3.029  52.136  1.00  0.00     0.078 A 
ATOM     21  C   UNL     1      19.510   2.735  51.941  1.00  0.00     0.141 A 
ATOM     22  Cl  UNL     1      21.417   4.658  52.082  1.00  0.00    -0.081 Cl
ATOM     23  F   UNL     1      18.618   3.711  51.716  1.00  0.00    -0.205 F 
ENDBRANCH  14  16
ENDBRANCH  10  14
ENDBRANCH   1   2
BRANCH   1  24
ATOM     24  C   UNL     1      26.452   3.004  51.041  1.00  0.00     0.231 C 
BRANCH  24  25
ATOM     25  C   UNL     1      26.064   3.308  49.594  1.00  0.00     0.057 C 
BRANCH  25  26
ATOM     26  C   UNL     1      26.717   4.609  49.102  1.00  0.00     0.088 C 
BRANCH  26  27
ATOM     27  N   UNL     1      25.720   5.661  48.852  1.00  0.00    -0.299 NA
ATOM     28  C   UNL     1      24.354   5.088  48.877  1.00  0.00     0.113 C 
ATOM     29  C   UNL     1      25.819   6.793  49.801  1.00  0.00     0.113 C 
ATOM     30  C   UNL     1      23.289   6.163  49.129  1.00  0.00     0.175 C 
ATOM     31  C   UNL     1      24.761   6.764  50.916  1.00  0.00     0.175 C 
ATOM     32  O   UNL     1      23.414   6.774  50.421  1.00  0.00    -0.379 OA
ENDBRANCH  26  27
ENDBRANCH  25  26
ENDBRANCH  24  25
ENDBRANCH   1  24
TORSDOF 8
ENDMDL
MODEL 10
REMARK minimizedAffinity -7.83794785
REMARK minimizedRMSD -1
REMARK SMILES COc1cc2ncnc(Nc3ccc(F)c(Cl)c3)c2cc1OCCCN1CCOCC1
REMARK SMILES IDX 22 1 21 2 3 3 4 4 5 5 20 6 6 7 19 8 7 9 9 10 8 11 2 12 1 13
REMARK SMILES IDX 10 14 11 16 12 17 18 18 13 19 16 20 14 21 17 22 15 23 23 24
REMARK SMILES IDX 24 25 25 26 26 27 27 28 31 29 28 30 30 31 29 32
REMARK H PARENT 10 15
ROOT
ATOM      1  O   UNL     1      25.727   4.612  50.047  1.00  0.00    -0.490 OA
ENDROOT
BRANCH   1   2
ATOM      2  C   UNL     1      24.875   3.605  50.420  1.00  0.00     0.162 A 
ATOM      3  C   UNL     1      23.726   3.412  49.646  1.00  0.00     0.162 A 
ATOM      4  C   UNL     1      22.824   2.408  50.010  1.00  0.00     0.079 A 
ATOM      5  C   UNL     1      23.024   1.608  51.130  1.00  0.00     0.080 A 
ATOM      6  C   UNL     1      25.082   2.826  51.559  1.00  0.00     0.064 A 
ATOM      7  N   UNL     1      22.118   0.665  51.402  1.00  0.00    -0.236 NA
ATOM      8  C   UNL     1      24.155   1.820  51.926  1.00  0.00     0.047 A 
ATOM      9  C   UNL     1      22.340  -0.091  52.483  1.00  0.00     0.224 A 
ATOM     10  C   UNL     1      24.272   0.980  53.052  1.00  0.00     0.141 A 
ATOM     11  N   UNL     1      23.371   0.019  53.321  1.00  0.00    -0.219 NA
BRANCH   3  12
ATOM     12  O   UNL     1      23.590   4.229  48.552  1.00  0.00    -0.493 OA
ATOM     13  C   UNL     1      22.376   4.144  47.817  1.00  0.00     0.278 C 
ENDBRANCH   3  12
BRANCH  10  14
ATOM     14  N   UNL     1      25.372   1.168  53.938  1.00  0.00    -0.340 N 
ATOM     15  H   UNL     1      25.027   1.141  54.893  1.00  0.00     0.168 HD
BRANCH  14  16
ATOM     16  C   UNL     1      26.671   0.621  53.834  1.00  0.00     0.041 A 
ATOM     17  C   UNL     1      27.782   1.472  53.971  1.00  0.00     0.029 A 
ATOM     18  C   UNL     1      26.898  -0.717  53.477  1.00  0.00     0.049 A 
ATOM     19  C   UNL     1      29.083   0.987  53.814  1.00  0.00     0.043 A 
ATOM     20  C   UNL     1      28.198  -1.203  53.319  1.00  0.00     0.078 A 
ATOM     21  C   UNL     1      29.283  -0.350  53.493  1.00  0.00     0.141 A 
ATOM     22  Cl  UNL     1      28.439  -2.855  52.890  1.00  0.00    -0.081 Cl
ATOM     23  F   UNL     1      30.540  -0.794  53.340  1.00  0.00    -0.205 F 
ENDBRANCH  14  16
ENDBRANCH  10  14
ENDBRANCH   1   2
BRANCH   1  24
ATOM     24  C   UNL     1      26.819   4.203  49.215  1.00  0.00     0.231 C 
BRANCH  24  25
ATOM     25  C   UNL     1      27.463   5.450  48.612  1.00  0.00     0.057 C 
BRANCH  25  26
ATOM     26  C   UNL     1      26.459   6.610  48.521  1.00  0.00     0.088 C 
BRANCH  26  27
ATOM     27  N   UNL     1      26.800   7.702  49.446  1.00  0.00    -0.299 NA
ATOM     28  C   UNL     1      28.008   8.415  48.972  1.00  0.00     0.113 C 
ATOM     29  C   UNL     1      25.687   8.657  49.651  1.00  0.00     0.113 C 
ATOM     30  C   UNL     1      28.113   9.822  49.575  1.00  0.00     0.175 C 
ATOM     31  C   UNL     1      25.836   9.965  48.856  1.00  0.00     0.175 C 
ATOM     32  O   UNL     1      27.041  10.681  49.165  1.00  0.00    -0.379 OA
ENDBRANCH  26  27
ENDBRANCH  25  26
ENDBRANCH  24  25
ENDBRANCH   1  24
TORSDOF 8
ENDMDL
MODEL 11
REMARK minimizedAffinity -7.79043293
REMARK minimizedRMSD -1
REMARK SMILES COc1cc2ncnc(Nc3ccc(F)c(Cl)c3)c2cc1OCCCN1CCOCC1
REMARK SMILES IDX 22 1 21 2 3 3 4 4 5 5 20 6 6 7 19 8 7 9 9 10 8 11 2 12 1 13
REMARK SMILES IDX 10 14 11 16 12 17 18 18 13 19 16 20 14 21 17 22 15 23 23 24
REMARK SMILES IDX 24 25 25 26 26 27 27 28 31 29 28 30 30 31 29 32
REMARK H PARENT 10 15
ROOT
ATOM      1  O   UNL     1      28.496   6.153  47.625  1.00  0.00    -0.490 OA
ENDROOT
BRANCH   1   2
ATOM      2  C   UNL     1      27.387   6.031  48.422  1.00  0.00     0.162 A 
ATOM      3  C   UNL     1      26.601   7.172  48.613  1.00  0.00     0.162 A 
ATOM      4  C   UNL     1      25.474   7.088  49.436  1.00  0.00     0.079 A 
ATOM      5  C   UNL     1      25.122   5.911  50.088  1.00  0.00     0.080 A 
ATOM      6  C   UNL     1      27.062   4.846  49.083  1.00  0.00     0.064 A 
ATOM      7  N   UNL     1      24.025   5.914  50.849  1.00  0.00    -0.236 NA
ATOM      8  C   UNL     1      25.925   4.776  49.926  1.00  0.00     0.047 A 
ATOM      9  C   UNL     1      23.710   4.766  51.459  1.00  0.00     0.224 A 
ATOM     10  C   UNL     1      25.510   3.631  50.635  1.00  0.00     0.141 A 
ATOM     11  N   UNL     1      24.397   3.625  51.390  1.00  0.00    -0.219 NA
BRANCH   3  12
ATOM     12  O   UNL     1      26.998   8.298  47.939  1.00  0.00    -0.493 OA
ATOM     13  C   UNL     1      27.501   9.381  48.711  1.00  0.00     0.278 C 
ENDBRANCH   3  12
BRANCH  10  14
ATOM     14  N   UNL     1      26.303   2.451  50.560  1.00  0.00    -0.340 N 
ATOM     15  H   UNL     1      26.986   2.567  49.816  1.00  0.00     0.168 HD
BRANCH  14  16
ATOM     16  C   UNL     1      26.817   1.682  51.629  1.00  0.00     0.041 A 
ATOM     17  C   UNL     1      27.572   2.323  52.628  1.00  0.00     0.029 A 
ATOM     18  C   UNL     1      26.711   0.283  51.669  1.00  0.00     0.049 A 
ATOM     19  C   UNL     1      28.152   1.594  53.669  1.00  0.00     0.043 A 
ATOM     20  C   UNL     1      27.292  -0.447  52.709  1.00  0.00     0.078 A 
ATOM     21  C   UNL     1      28.005   0.212  53.705  1.00  0.00     0.141 A 
ATOM     22  Cl  UNL     1      27.131  -2.163  52.732  1.00  0.00    -0.081 Cl
ATOM     23  F   UNL     1      28.576  -0.470  54.709  1.00  0.00    -0.205 F 
ENDBRANCH  14  16
ENDBRANCH  10  14
ENDBRANCH   1   2
BRANCH   1  24
ATOM     24  C   UNL     1      29.703   5.622  48.184  1.00  0.00     0.231 C 
BRANCH  24  25
ATOM     25  C   UNL     1      30.576   6.787  48.650  1.00  0.00     0.057 C 
BRANCH  25  26
ATOM     26  C   UNL     1      31.899   6.289  49.250  1.00  0.00     0.088 C 
BRANCH  26  27
ATOM     27  N   UNL     1      33.032   6.512  48.339  1.00  0.00    -0.299 NA
ATOM     28  C   UNL     1      33.747   7.755  48.706  1.00  0.00     0.113 C 
ATOM     29  C   UNL     1      33.975   5.370  48.295  1.00  0.00     0.113 C 
ATOM     30  C   UNL     1      35.178   7.775  48.152  1.00  0.00     0.175 C 
ATOM     31  C   UNL     1      35.254   5.589  49.121  1.00  0.00     0.175 C 
ATOM     32  O   UNL     1      36.002   6.743  48.712  1.00  0.00    -0.379 OA
ENDBRANCH  26  27
ENDBRANCH  25  26
ENDBRANCH  24  25
ENDBRANCH   1  24
TORSDOF 8
ENDMDL
MODEL 12
REMARK minimizedAffinity -7.78006458
REMARK minimizedRMSD -1
REMARK SMILES COc1cc2ncnc(Nc3ccc(F)c(Cl)c3)c2cc1OCCCN1CCOCC1
REMARK SMILES IDX 22 1 21 2 3 3 4 4 5 5 20 6 6 7 19 8 7 9 9 10 8 11 2 12 1 13
REMARK SMILES IDX 10 14 11 16 12 17 18 18 13 19 16 20 14 21 17 22 15 23 23 24
REMARK SMILES IDX 24 25 25 26 26 27 27 28 31 29 28 30 30 31 29 32
REMARK H PARENT 10 15
ROOT
ATOM      1  O   UNL     1      22.876   3.092  49.002  1.00  0.00    -0.490 OA
ENDROOT
BRANCH   1   2
ATOM      2  C   UNL     1      22.662   2.142  49.968  1.00  0.00     0.162 A 
ATOM      3  C   UNL     1      21.462   1.426  49.913  1.00  0.00     0.162 A 
ATOM      4  C   UNL     1      21.201   0.465  50.895  1.00  0.00     0.079 A 
ATOM      5  C   UNL     1      22.088   0.214  51.935  1.00  0.00     0.080 A 
ATOM      6  C   UNL     1      23.555   1.919  51.015  1.00  0.00     0.064 A 
ATOM      7  N   UNL     1      21.767  -0.727  52.826  1.00  0.00    -0.236 NA
ATOM      8  C   UNL     1      23.275   0.952  52.012  1.00  0.00     0.047 A 
ATOM      9  C   UNL     1      22.642  -0.949  53.813  1.00  0.00     0.224 A 
ATOM     10  C   UNL     1      24.110   0.650  53.107  1.00  0.00     0.141 A 
ATOM     11  N   UNL     1      23.798  -0.308  53.998  1.00  0.00    -0.219 NA
BRANCH   3  12
ATOM     12  O   UNL     1      20.632   1.716  48.860  1.00  0.00    -0.493 OA
ATOM     13  C   UNL     1      19.412   2.385  49.152  1.00  0.00     0.278 C 
ENDBRANCH   3  12
BRANCH  10  14
ATOM     14  N   UNL     1      25.312   1.393  53.281  1.00  0.00    -0.340 N 
ATOM     15  H   UNL     1      25.131   2.155  53.928  1.00  0.00     0.168 HD
BRANCH  14  16
ATOM     16  C   UNL     1      26.628   0.895  53.413  1.00  0.00     0.041 A 
ATOM     17  C   UNL     1      27.676   1.797  53.664  1.00  0.00     0.029 A 
ATOM     18  C   UNL     1      26.950  -0.451  53.179  1.00  0.00     0.049 A 
ATOM     19  C   UNL     1      29.001   1.358  53.739  1.00  0.00     0.043 A 
ATOM     20  C   UNL     1      28.273  -0.892  53.252  1.00  0.00     0.078 A 
ATOM     21  C   UNL     1      29.291   0.014  53.537  1.00  0.00     0.141 A 
ATOM     22  Cl  UNL     1      28.630  -2.554  52.971  1.00  0.00    -0.081 Cl
ATOM     23  F   UNL     1      30.569  -0.387  53.606  1.00  0.00    -0.205 F 
ENDBRANCH  14  16
ENDBRANCH  10  14
ENDBRANCH   1   2
BRANCH   1  24
ATOM     24  C   UNL     1      22.658   4.442  49.424  1.00  0.00     0.231 C 
BRANCH  24  25
ATOM     25  C   UNL     1      23.691   5.337  48.739  1.00  0.00     0.057 C 
BRANCH  25  26
ATOM     26  C   UNL     1      24.302   6.342  49.728  1.00  0.00     0.088 C 
BRANCH  26  27
ATOM     27  N   UNL     1      25.759   6.182  49.839  1.00  0.00    -0.299 NA
ATOM     28  C   UNL     1      26.211   5.027  49.032  1.00  0.00     0.113 C 
ATOM     29  C   UNL     1      26.509   7.401  49.456  1.00  0.00     0.113 C 
ATOM     30  C   UNL     1      27.707   5.111  48.700  1.00  0.00     0.175 C 
ATOM     31  C   UNL     1      27.120   7.336  48.046  1.00  0.00     0.175 C 
ATOM     32  O   UNL     1      28.027   6.238  47.872  1.00  0.00    -0.379 OA
ENDBRANCH  26  27
ENDBRANCH  25  26
ENDBRANCH  24  25
ENDBRANCH   1  24
TORSDOF 8
ENDMDL
MODEL 13
REMARK minimizedAffinity -7.75503922
REMARK minimizedRMSD -1
REMARK SMILES COc1cc2ncnc(Nc3ccc(F)c(Cl)c3)c2cc1OCCCN1CCOCC1
REMARK SMILES IDX 22 1 21 2 3 3 4 4 5 5 20 6 6 7 19 8 7 9 9 10 8 11 2 12 1 13
REMARK SMILES IDX 10 14 11 16 12 17 18 18 13 19 16 20 14 21 17 22 15 23 23 24
REMARK SMILES IDX 24 25 25 26 26 27 27 28 31 29 28 30 30 31 29 32
REMARK H PARENT 10 15
ROOT
ATOM      1  O   UNL     1      25.562   4.226  50.089  1.00  0.00    -0.490 OA
ENDROOT
BRANCH   1   2
ATOM      2  C   UNL     1      24.553   3.321  50.303  1.00  0.00     0.162 A 
ATOM      3  C   UNL     1      23.468   3.345  49.421  1.00  0.00     0.162 A 
ATOM      4  C   UNL     1      22.412   2.451  49.622  1.00  0.00     0.079 A 
ATOM      5  C   UNL     1      22.397   1.554  50.684  1.00  0.00     0.080 A 
ATOM      6  C   UNL     1      24.547   2.442  51.386  1.00  0.00     0.064 A 
ATOM      7  N   UNL     1      21.354   0.728  50.799  1.00  0.00    -0.236 NA
ATOM      8  C   UNL     1      23.465   1.550  51.588  1.00  0.00     0.047 A 
ATOM      9  C   UNL     1      21.371  -0.127  51.828  1.00  0.00     0.224 A 
ATOM     10  C   UNL     1      23.364   0.624  52.646  1.00  0.00     0.141 A 
ATOM     11  N   UNL     1      22.323  -0.220  52.757  1.00  0.00    -0.219 NA
BRANCH   3  12
ATOM     12  O   UNL     1      23.545   4.249  48.392  1.00  0.00    -0.493 OA
ATOM     13  C   UNL     1      22.343   4.898  47.998  1.00  0.00     0.278 C 
ENDBRANCH   3  12
BRANCH  10  14
ATOM     14  N   UNL     1      24.389   0.595  53.634  1.00  0.00    -0.340 N 
ATOM     15  H   UNL     1      23.994   0.240  54.500  1.00  0.00     0.168 HD
BRANCH  14  16
ATOM     16  C   UNL     1      25.737   0.201  53.474  1.00  0.00     0.041 A 
ATOM     17  C   UNL     1      26.018  -1.048  52.893  1.00  0.00     0.029 A 
ATOM     18  C   UNL     1      26.806   0.954  53.983  1.00  0.00     0.049 A 
ATOM     19  C   UNL     1      27.333  -1.505  52.772  1.00  0.00     0.043 A 
ATOM     20  C   UNL     1      28.121   0.498  53.864  1.00  0.00     0.078 A 
ATOM     21  C   UNL     1      28.378  -0.727  53.255  1.00  0.00     0.141 A 
ATOM     22  Cl  UNL     1      29.410   1.454  54.492  1.00  0.00    -0.081 Cl
ATOM     23  F   UNL     1      29.632  -1.187  53.135  1.00  0.00    -0.205 F 
ENDBRANCH  14  16
ENDBRANCH  10  14
ENDBRANCH   1   2
BRANCH   1  24
ATOM     24  C   UNL     1      26.754   3.676  49.519  1.00  0.00     0.231 C 
BRANCH  24  25
ATOM     25  C   UNL     1      27.469   4.777  48.736  1.00  0.00     0.057 C 
BRANCH  25  26
ATOM     26  C   UNL     1      26.754   6.128  48.891  1.00  0.00     0.088 C 
BRANCH  26  27
ATOM     27  N   UNL     1      27.463   7.206  48.185  1.00  0.00    -0.299 NA
ATOM     28  C   UNL     1      27.612   8.385  49.068  1.00  0.00     0.113 C 
ATOM     29  C   UNL     1      28.784   6.787  47.662  1.00  0.00     0.113 C 
ATOM     30  C   UNL     1      28.743   9.310  48.600  1.00  0.00     0.175 C 
ATOM     31  C   UNL     1      29.971   7.258  48.520  1.00  0.00     0.175 C 
ATOM     32  O   UNL     1      30.032   8.684  48.666  1.00  0.00    -0.379 OA
ENDBRANCH  26  27
ENDBRANCH  25  26
ENDBRANCH  24  25
ENDBRANCH   1  24
TORSDOF 8
ENDMDL
MODEL 14
REMARK minimizedAffinity -7.74863815
REMARK minimizedRMSD -1
REMARK SMILES COc1cc2ncnc(Nc3ccc(F)c(Cl)c3)c2cc1OCCCN1CCOCC1
REMARK SMILES IDX 22 1 21 2 3 3 4 4 5 5 20 6 6 7 19 8 7 9 9 10 8 11 2 12 1 13
REMARK SMILES IDX 10 14 11 16 12 17 18 18 13 19 16 20 14 21 17 22 15 23 23 24
REMARK SMILES IDX 24 25 25 26 26 27 27 28 31 29 28 30 30 31 29 32
REMARK H PARENT 10 15
ROOT
ATOM      1  O   UNL     1      27.208   6.117  48.242  1.00  0.00    -0.490 OA
ENDROOT
BRANCH   1   2
ATOM      2  C   UNL     1      26.231   5.816  49.156  1.00  0.00     0.162 A 
ATOM      3  C   UNL     1      25.399   6.859  49.577  1.00  0.00     0.162 A 
ATOM      4  C   UNL     1      24.406   6.593  50.525  1.00  0.00     0.079 A 
ATOM      5  C   UNL     1      24.235   5.329  51.079  1.00  0.00     0.080 A 
ATOM      6  C   UNL     1      26.088   4.546  49.716  1.00  0.00     0.064 A 
ATOM      7  N   UNL     1      23.257   5.158  51.972  1.00  0.00    -0.236 NA
ATOM      8  C   UNL     1      25.088   4.291  50.686  1.00  0.00     0.047 A 
ATOM      9  C   UNL     1      23.114   3.930  52.483  1.00  0.00     0.224 A 
ATOM     10  C   UNL     1      24.859   3.047  51.308  1.00  0.00     0.141 A 
ATOM     11  N   UNL     1      23.865   2.866  52.196  1.00  0.00    -0.219 NA
BRANCH   3  12
ATOM     12  O   UNL     1      25.615   8.079  48.989  1.00  0.00    -0.493 OA
ATOM     13  C   UNL     1      24.473   8.837  48.612  1.00  0.00     0.278 C 
ENDBRANCH   3  12
BRANCH  10  14
ATOM     14  N   UNL     1      25.718   1.955  50.997  1.00  0.00    -0.340 N 
ATOM     15  H   UNL     1      26.104   2.101  50.068  1.00  0.00     0.168 HD
BRANCH  14  16
ATOM     16  C   UNL     1      26.638   1.305  51.850  1.00  0.00     0.041 A 
ATOM     17  C   UNL     1      26.552  -0.089  52.010  1.00  0.00     0.029 A 
ATOM     18  C   UNL     1      27.558   2.010  52.642  1.00  0.00     0.049 A 
ATOM     19  C   UNL     1      27.400  -0.766  52.891  1.00  0.00     0.043 A 
ATOM     20  C   UNL     1      28.405   1.336  53.525  1.00  0.00     0.078 A 
ATOM     21  C   UNL     1      28.325  -0.048  53.641  1.00  0.00     0.141 A 
ATOM     22  Cl  UNL     1      29.529   2.234  54.473  1.00  0.00    -0.081 Cl
ATOM     23  F   UNL     1      29.125  -0.716  54.486  1.00  0.00    -0.205 F 
ENDBRANCH  14  16
ENDBRANCH  10  14
ENDBRANCH   1   2
BRANCH   1  24
ATOM     24  C   UNL     1      28.410   5.350  48.368  1.00  0.00     0.231 C 
BRANCH  24  25
ATOM     25  C   UNL     1      29.591   6.227  47.952  1.00  0.00     0.057 C 
BRANCH  25  26
ATOM     26  C   UNL     1      30.879   5.810  48.677  1.00  0.00     0.088 C 
BRANCH  26  27
ATOM     27  N   UNL     1      31.986   5.579  47.736  1.00  0.00    -0.299 NA
ATOM     28  C   UNL     1      33.285   5.816  48.405  1.00  0.00     0.113 C 
ATOM     29  C   UNL     1      31.960   4.228  47.130  1.00  0.00     0.113 C 
ATOM     30  C   UNL     1      34.441   5.123  47.671  1.00  0.00     0.175 C 
ATOM     31  C   UNL     1      32.962   3.245  47.759  1.00  0.00     0.175 C 
ATOM     32  O   UNL     1      34.322   3.694  47.678  1.00  0.00    -0.379 OA
ENDBRANCH  26  27
ENDBRANCH  25  26
ENDBRANCH  24  25
ENDBRANCH   1  24
TORSDOF 8
ENDMDL
MODEL 15
REMARK minimizedAffinity -7.74662828
REMARK minimizedRMSD -1
REMARK SMILES COc1cc2ncnc(Nc3ccc(F)c(Cl)c3)c2cc1OCCCN1CCOCC1
REMARK SMILES IDX 22 1 21 2 3 3 4 4 5 5 20 6 6 7 19 8 7 9 9 10 8 11 2 12 1 13
REMARK SMILES IDX 10 14 11 16 12 17 18 18 13 19 16 20 14 21 17 22 15 23 23 24
REMARK SMILES IDX 24 25 25 26 26 27 27 28 31 29 28 30 30 31 29 32
REMARK H PARENT 10 15
ROOT
ATOM      1  O   UNL     1      25.479   3.905  49.212  1.00  0.00    -0.490 OA
ENDROOT
BRANCH   1   2
ATOM      2  C   UNL     1      25.768   5.228  49.428  1.00  0.00     0.162 A 
ATOM      3  C   UNL     1      24.859   5.971  50.189  1.00  0.00     0.162 A 
ATOM      4  C   UNL     1      25.110   7.328  50.410  1.00  0.00     0.079 A 
ATOM      5  C   UNL     1      26.225   7.968  49.880  1.00  0.00     0.080 A 
ATOM      6  C   UNL     1      26.881   5.857  48.871  1.00  0.00     0.064 A 
ATOM      7  N   UNL     1      26.396   9.265  50.147  1.00  0.00    -0.236 NA
ATOM      8  C   UNL     1      27.119   7.236  49.090  1.00  0.00     0.047 A 
ATOM      9  C   UNL     1      27.480   9.851  49.628  1.00  0.00     0.224 A 
ATOM     10  C   UNL     1      28.213   7.963  48.576  1.00  0.00     0.141 A 
ATOM     11  N   UNL     1      28.397   9.266  48.856  1.00  0.00    -0.219 NA
BRANCH   3  12
ATOM     12  O   UNL     1      23.783   5.281  50.687  1.00  0.00    -0.493 OA
ATOM     13  C   UNL     1      23.637   5.226  52.100  1.00  0.00     0.278 C 
ENDBRANCH   3  12
BRANCH  10  14
ATOM     14  N   UNL     1      29.139   7.299  47.723  1.00  0.00    -0.340 N 
ATOM     15  H   UNL     1      29.152   7.776  46.826  1.00  0.00     0.168 HD
BRANCH  14  16
ATOM     16  C   UNL     1      30.410   6.781  48.060  1.00  0.00     0.041 A 
ATOM     17  C   UNL     1      31.363   7.636  48.642  1.00  0.00     0.029 A 
ATOM     18  C   UNL     1      30.804   5.476  47.724  1.00  0.00     0.049 A 
ATOM     19  C   UNL     1      32.652   7.183  48.934  1.00  0.00     0.043 A 
ATOM     20  C   UNL     1      32.093   5.023  48.014  1.00  0.00     0.078 A 
ATOM     21  C   UNL     1      33.008   5.877  48.622  1.00  0.00     0.141 A 
ATOM     22  Cl  UNL     1      32.538   3.411  47.597  1.00  0.00    -0.081 Cl
ATOM     23  F   UNL     1      34.253   5.464  48.904  1.00  0.00    -0.205 F 
ENDBRANCH  14  16
ENDBRANCH  10  14
ENDBRANCH   1   2
BRANCH   1  24
ATOM     24  C   UNL     1      26.475   2.987  49.675  1.00  0.00     0.231 C 
BRANCH  24  25
ATOM     25  C   UNL     1      25.962   2.315  50.948  1.00  0.00     0.057 C 
BRANCH  25  26
ATOM     26  C   UNL     1      26.992   2.407  52.084  1.00  0.00     0.088 C 
BRANCH  26  27
ATOM     27  N   UNL     1      27.448   1.078  52.517  1.00  0.00    -0.299 NA
ATOM     28  C   UNL     1      28.575   1.208  53.468  1.00  0.00     0.113 C 
ATOM     29  C   UNL     1      26.367   0.258  53.112  1.00  0.00     0.113 C 
ATOM     30  C   UNL     1      28.753  -0.055  54.321  1.00  0.00     0.175 C 
ATOM     31  C   UNL     1      26.398   0.210  54.649  1.00  0.00     0.175 C 
ATOM     32  O   UNL     1      27.629  -0.308  55.175  1.00  0.00    -0.379 OA
ENDBRANCH  26  27
ENDBRANCH  25  26
ENDBRANCH  24  25
ENDBRANCH   1  24
TORSDOF 8
ENDMDL
MODEL 16
REMARK minimizedAffinity -7.70529842
REMARK minimizedRMSD -1
REMARK SMILES COc1cc2ncnc(Nc3ccc(F)c(Cl)c3)c2cc1OCCCN1CCOCC1
REMARK SMILES IDX 22 1 21 2 3 3 4 4 5 5 20 6 6 7 19 8 7 9 9 10 8 11 2 12 1 13
REMARK SMILES IDX 10 14 11 16 12 17 18 18 13 19 16 20 14 21 17 22 15 23 23 24
REMARK SMILES IDX 24 25 25 26 26 27 27 28 31 29 28 30 30 31 29 32
REMARK H PARENT 10 15
ROOT
ATOM      1  O   UNL     1      22.591   3.191  49.986  1.00  0.00    -0.490 OA
ENDROOT
BRANCH   1   2
ATOM      2  C   UNL     1      22.249   2.407  51.058  1.00  0.00     0.162 A 
ATOM      3  C   UNL     1      21.010   2.643  51.661  1.00  0.00     0.162 A 
ATOM      4  C   UNL     1      20.638   1.877  52.769  1.00  0.00     0.079 A 
ATOM      5  C   UNL     1      21.471   0.900  53.304  1.00  0.00     0.080 A 
ATOM      6  C   UNL     1      23.107   1.445  51.592  1.00  0.00     0.064 A 
ATOM      7  N   UNL     1      21.036   0.206  54.358  1.00  0.00    -0.236 NA
ATOM      8  C   UNL     1      22.726   0.683  52.724  1.00  0.00     0.047 A 
ATOM      9  C   UNL     1      21.858  -0.729  54.847  1.00  0.00     0.224 A 
ATOM     10  C   UNL     1      23.516  -0.311  53.336  1.00  0.00     0.141 A 
ATOM     11  N   UNL     1      23.076  -1.023  54.388  1.00  0.00    -0.219 NA
BRANCH   3  12
ATOM     12  O   UNL     1      20.233   3.616  51.084  1.00  0.00    -0.493 OA
ATOM     13  C   UNL     1      18.844   3.611  51.387  1.00  0.00     0.278 C 
ENDBRANCH   3  12
BRANCH  10  14
ATOM     14  N   UNL     1      24.826  -0.555  52.833  1.00  0.00    -0.340 N 
ATOM     15  H   UNL     1      24.779  -0.600  51.819  1.00  0.00     0.168 HD
BRANCH  14  16
ATOM     16  C   UNL     1      26.044   0.008  53.278  1.00  0.00     0.041 A 
ATOM     17  C   UNL     1      26.080   1.369  53.626  1.00  0.00     0.029 A 
ATOM     18  C   UNL     1      27.251  -0.709  53.268  1.00  0.00     0.049 A 
ATOM     19  C   UNL     1      27.275   1.982  54.010  1.00  0.00     0.043 A 
ATOM     20  C   UNL     1      28.447  -0.097  53.650  1.00  0.00     0.078 A 
ATOM     21  C   UNL     1      28.452   1.243  54.024  1.00  0.00     0.141 A 
ATOM     22  Cl  UNL     1      29.908  -1.011  53.637  1.00  0.00    -0.081 Cl
ATOM     23  F   UNL     1      29.590   1.852  54.390  1.00  0.00    -0.205 F 
ENDBRANCH  14  16
ENDBRANCH  10  14
ENDBRANCH   1   2
BRANCH   1  24
ATOM     24  C   UNL     1      23.965   3.111  49.594  1.00  0.00     0.231 C 
BRANCH  24  25
ATOM     25  C   UNL     1      24.381   4.460  49.006  1.00  0.00     0.057 C 
BRANCH  25  26
ATOM     26  C   UNL     1      25.429   5.154  49.888  1.00  0.00     0.088 C 
BRANCH  26  27
ATOM     27  N   UNL     1      24.943   6.444  50.403  1.00  0.00    -0.299 NA
ATOM     28  C   UNL     1      24.395   7.262  49.297  1.00  0.00     0.113 C 
ATOM     29  C   UNL     1      23.938   6.297  51.480  1.00  0.00     0.113 C 
ATOM     30  C   UNL     1      23.443   8.351  49.810  1.00  0.00     0.175 C 
ATOM     31  C   UNL     1      22.489   6.516  51.012  1.00  0.00     0.175 C 
ATOM     32  O   UNL     1      22.270   7.810  50.433  1.00  0.00    -0.379 OA
ENDBRANCH  26  27
ENDBRANCH  25  26
ENDBRANCH  24  25
ENDBRANCH   1  24
TORSDOF 8
ENDMDL
MODEL 17
REMARK minimizedAffinity -7.68802071
REMARK minimizedRMSD -1
REMARK SMILES COc1cc2ncnc(Nc3ccc(F)c(Cl)c3)c2cc1OCCCN1CCOCC1
REMARK SMILES IDX 22 1 21 2 3 3 4 4 5 5 20 6 6 7 19 8 7 9 9 10 8 11 2 12 1 13
REMARK SMILES IDX 10 14 11 16 12 17 18 18 13 19 16 20 14 21 17 22 15 23 23 24
REMARK SMILES IDX 24 25 25 26 26 27 27 28 31 29 28 30 30 31 29 32
REMARK H PARENT 10 15
ROOT
ATOM      1  O   UNL     1      21.582   1.168  50.597  1.00  0.00    -0.490 OA
ENDROOT
BRANCH   1   2
ATOM      2  C   UNL     1      22.750   1.236  51.312  1.00  0.00     0.162 A 
ATOM      3  C   UNL     1      22.725   0.781  52.634  1.00  0.00     0.162 A 
ATOM      4  C   UNL     1      23.893   0.856  53.398  1.00  0.00     0.079 A 
ATOM      5  C   UNL     1      25.074   1.387  52.892  1.00  0.00     0.080 A 
ATOM      6  C   UNL     1      23.920   1.792  50.792  1.00  0.00     0.064 A 
ATOM      7  N   UNL     1      26.147   1.413  53.686  1.00  0.00    -0.236 NA
ATOM      8  C   UNL     1      25.094   1.875  51.580  1.00  0.00     0.047 A 
ATOM      9  C   UNL     1      27.269   1.926  53.169  1.00  0.00     0.224 A 
ATOM     10  C   UNL     1      26.324   2.414  51.150  1.00  0.00     0.141 A 
ATOM     11  N   UNL     1      27.411   2.427  51.941  1.00  0.00    -0.219 NA
BRANCH   3  12
ATOM     12  O   UNL     1      21.533   0.264  53.072  1.00  0.00    -0.493 OA
ATOM     13  C   UNL     1      21.577  -0.663  54.149  1.00  0.00     0.278 C 
ENDBRANCH   3  12
BRANCH  10  14
ATOM     14  N   UNL     1      26.409   2.974  49.844  1.00  0.00    -0.340 N 
ATOM     15  H   UNL     1      25.789   2.456  49.228  1.00  0.00     0.168 HD
BRANCH  14  16
ATOM     16  C   UNL     1      26.477   4.341  49.489  1.00  0.00     0.041 A 
ATOM     17  C   UNL     1      27.548   4.787  48.695  1.00  0.00     0.029 A 
ATOM     18  C   UNL     1      25.585   5.296  50.001  1.00  0.00     0.049 A 
ATOM     19  C   UNL     1      27.690   6.139  48.373  1.00  0.00     0.043 A 
ATOM     20  C   UNL     1      25.727   6.649  49.682  1.00  0.00     0.078 A 
ATOM     21  C   UNL     1      26.775   7.062  48.866  1.00  0.00     0.141 A 
ATOM     22  Cl  UNL     1      24.606   7.792  50.319  1.00  0.00    -0.081 Cl
ATOM     23  F   UNL     1      26.933   8.357  48.551  1.00  0.00    -0.205 F 
ENDBRANCH  14  16
ENDBRANCH  10  14
ENDBRANCH   1   2
BRANCH   1  24
ATOM     24  C   UNL     1      21.741   1.199  49.175  1.00  0.00     0.231 C 
BRANCH  24  25
ATOM     25  C   UNL     1      20.629   2.062  48.580  1.00  0.00     0.057 C 
BRANCH  25  26
ATOM     26  C   UNL     1      20.976   3.556  48.666  1.00  0.00     0.088 C 
BRANCH  26  27
ATOM     27  N   UNL     1      20.020   4.292  49.508  1.00  0.00    -0.299 NA
ATOM     28  C   UNL     1      18.727   3.573  49.564  1.00  0.00     0.113 C 
ATOM     29  C   UNL     1      20.527   4.545  50.876  1.00  0.00     0.113 C 
ATOM     30  C   UNL     1      17.894   3.991  50.782  1.00  0.00     0.175 C 
ATOM     31  C   UNL     1      19.950   3.593  51.938  1.00  0.00     0.175 C 
ATOM     32  O   UNL     1      18.519   3.642  52.025  1.00  0.00    -0.379 OA
ENDBRANCH  26  27
ENDBRANCH  25  26
ENDBRANCH  24  25
ENDBRANCH   1  24
TORSDOF 8
ENDMDL
MODEL 18
REMARK minimizedAffinity -7.65043545
REMARK minimizedRMSD -1
REMARK SMILES COc1cc2ncnc(Nc3ccc(F)c(Cl)c3)c2cc1OCCCN1CCOCC1
REMARK SMILES IDX 22 1 21 2 3 3 4 4 5 5 20 6 6 7 19 8 7 9 9 10 8 11 2 12 1 13
REMARK SMILES IDX 10 14 11 16 12 17 18 18 13 19 16 20 14 21 17 22 15 23 23 24
REMARK SMILES IDX 24 25 25 26 26 27 27 28 31 29 28 30 30 31 29 32
REMARK H PARENT 10 15
ROOT
ATOM      1  O   UNL     1      25.952   5.516  48.768  1.00  0.00    -0.490 OA
ENDROOT
BRANCH   1   2
ATOM      2  C   UNL     1      25.053   4.738  49.451  1.00  0.00     0.162 A 
ATOM      3  C   UNL     1      23.740   4.696  48.970  1.00  0.00     0.162 A 
ATOM      4  C   UNL     1      22.792   3.930  49.654  1.00  0.00     0.079 A 
ATOM      5  C   UNL     1      23.108   3.224  50.809  1.00  0.00     0.080 A 
ATOM      6  C   UNL     1      25.385   4.053  50.620  1.00  0.00     0.064 A 
ATOM      7  N   UNL     1      22.145   2.509  51.397  1.00  0.00    -0.236 NA
ATOM      8  C   UNL     1      24.412   3.290  51.313  1.00  0.00     0.047 A 
ATOM      9  C   UNL     1      22.481   1.838  52.503  1.00  0.00     0.224 A 
ATOM     10  C   UNL     1      24.645   2.562  52.497  1.00  0.00     0.141 A 
ATOM     11  N   UNL     1      23.682   1.828  53.083  1.00  0.00    -0.219 NA
BRANCH   3  12
ATOM     12  O   UNL     1      23.494   5.409  47.824  1.00  0.00    -0.493 OA
ATOM     13  C   UNL     1      22.136   5.653  47.483  1.00  0.00     0.278 C 
ENDBRANCH   3  12
BRANCH  10  14
ATOM     14  N   UNL     1      25.935   2.620  53.097  1.00  0.00    -0.340 N 
ATOM     15  H   UNL     1      25.873   3.175  53.945  1.00  0.00     0.168 HD
BRANCH  14  16
ATOM     16  C   UNL     1      26.880   1.576  53.223  1.00  0.00     0.041 A 
ATOM     17  C   UNL     1      28.203   1.893  53.578  1.00  0.00     0.029 A 
ATOM     18  C   UNL     1      26.582   0.246  52.886  1.00  0.00     0.049 A 
ATOM     19  C   UNL     1      29.185   0.902  53.652  1.00  0.00     0.043 A 
ATOM     20  C   UNL     1      27.563  -0.745  52.958  1.00  0.00     0.078 A 
ATOM     21  C   UNL     1      28.858  -0.413  53.345  1.00  0.00     0.141 A 
ATOM     22  Cl  UNL     1      27.158  -2.369  52.547  1.00  0.00    -0.081 Cl
ATOM     23  F   UNL     1      29.817  -1.349  53.415  1.00  0.00    -0.205 F 
ENDBRANCH  14  16
ENDBRANCH  10  14
ENDBRANCH   1   2
BRANCH   1  24
ATOM     24  C   UNL     1      27.286   4.997  48.720  1.00  0.00     0.231 C 
BRANCH  24  25
ATOM     25  C   UNL     1      28.211   6.084  48.174  1.00  0.00     0.057 C 
BRANCH  25  26
ATOM     26  C   UNL     1      29.662   5.589  48.083  1.00  0.00     0.088 C 
BRANCH  26  27
ATOM     27  N   UNL     1      30.589   6.675  47.728  1.00  0.00    -0.299 NA
ATOM     28  C   UNL     1      30.652   7.672  48.820  1.00  0.00     0.113 C 
ATOM     29  C   UNL     1      31.949   6.192  47.394  1.00  0.00     0.113 C 
ATOM     30  C   UNL     1      31.929   8.521  48.746  1.00  0.00     0.175 C 
ATOM     31  C   UNL     1      32.970   6.378  48.530  1.00  0.00     0.175 C 
ATOM     32  O   UNL     1      33.120   7.745  48.938  1.00  0.00    -0.379 OA
ENDBRANCH  26  27
ENDBRANCH  25  26
ENDBRANCH  24  25
ENDBRANCH   1  24
TORSDOF 8
ENDMDL
MODEL 19
REMARK minimizedAffinity -7.62673807
REMARK minimizedRMSD -1
REMARK SMILES COc1cc2ncnc(Nc3ccc(F)c(Cl)c3)c2cc1OCCCN1CCOCC1
REMARK SMILES IDX 22 1 21 2 3 3 4 4 5 5 20 6 6 7 19 8 7 9 9 10 8 11 2 12 1 13
REMARK SMILES IDX 10 14 11 16 12 17 18 18 13 19 16 20 14 21 17 22 15 23 23 24
REMARK SMILES IDX 24 25 25 26 26 27 27 28 31 29 28 30 30 31 29 32
REMARK H PARENT 10 15
ROOT
ATOM      1  O   UNL     1      29.965   5.847  47.730  1.00  0.00    -0.490 OA
ENDROOT
BRANCH   1   2
ATOM      2  C   UNL     1      28.628   5.915  48.029  1.00  0.00     0.162 A 
ATOM      3  C   UNL     1      27.950   7.089  47.685  1.00  0.00     0.162 A 
ATOM      4  C   UNL     1      26.591   7.202  47.994  1.00  0.00     0.079 A 
ATOM      5  C   UNL     1      25.897   6.191  48.651  1.00  0.00     0.080 A 
ATOM      6  C   UNL     1      27.954   4.899  48.707  1.00  0.00     0.064 A 
ATOM      7  N   UNL     1      24.599   6.375  48.901  1.00  0.00    -0.236 NA
ATOM      8  C   UNL     1      26.581   5.029  49.027  1.00  0.00     0.047 A 
ATOM      9  C   UNL     1      23.958   5.384  49.530  1.00  0.00     0.224 A 
ATOM     10  C   UNL     1      25.810   4.062  49.705  1.00  0.00     0.141 A 
ATOM     11  N   UNL     1      24.498   4.236  49.944  1.00  0.00    -0.219 NA
BRANCH   3  12
ATOM     12  O   UNL     1      28.688   8.045  47.035  1.00  0.00    -0.493 OA
ATOM     13  C   UNL     1      29.021   9.222  47.760  1.00  0.00     0.278 C 
ENDBRANCH   3  12
BRANCH  10  14
ATOM     14  N   UNL     1      26.447   2.873  50.162  1.00  0.00    -0.340 N 
ATOM     15  H   UNL     1      27.399   2.860  49.810  1.00  0.00     0.168 HD
BRANCH  14  16
ATOM     16  C   UNL     1      26.351   2.276  51.440  1.00  0.00     0.041 A 
ATOM     17  C   UNL     1      27.427   2.406  52.335  1.00  0.00     0.029 A 
ATOM     18  C   UNL     1      25.276   1.451  51.806  1.00  0.00     0.049 A 
ATOM     19  C   UNL     1      27.403   1.780  53.584  1.00  0.00     0.043 A 
ATOM     20  C   UNL     1      25.252   0.823  53.054  1.00  0.00     0.078 A 
ATOM     21  C   UNL     1      26.312   0.994  53.937  1.00  0.00     0.141 A 
ATOM     22  Cl  UNL     1      23.910  -0.174  53.474  1.00  0.00    -0.081 Cl
ATOM     23  F   UNL     1      26.312   0.396  55.138  1.00  0.00    -0.205 F 
ENDBRANCH  14  16
ENDBRANCH  10  14
ENDBRANCH   1   2
BRANCH   1  24
ATOM     24  C   UNL     1      30.843   6.064  48.840  1.00  0.00     0.231 C 
BRANCH  24  25
ATOM     25  C   UNL     1      32.166   6.616  48.310  1.00  0.00     0.057 C 
BRANCH  25  26
ATOM     26  C   UNL     1      32.308   6.374  46.800  1.00  0.00     0.088 C 
BRANCH  26  27
ATOM     27  N   UNL     1      33.283   5.312  46.506  1.00  0.00    -0.299 NA
ATOM     28  C   UNL     1      34.172   5.096  47.670  1.00  0.00     0.113 C 
ATOM     29  C   UNL     1      32.648   4.037  46.100  1.00  0.00     0.113 C 
ATOM     30  C   UNL     1      34.842   3.716  47.628  1.00  0.00     0.175 C 
ATOM     31  C   UNL     1      32.602   2.983  47.219  1.00  0.00     0.175 C 
ATOM     32  O   UNL     1      33.899   2.640  47.729  1.00  0.00    -0.379 OA
ENDBRANCH  26  27
ENDBRANCH  25  26
ENDBRANCH  24  25
ENDBRANCH   1  24
TORSDOF 8
ENDMDL
MODEL 20
REMARK minimizedAffinity -7.52063179
REMARK minimizedRMSD -1
REMARK SMILES COc1cc2ncnc(Nc3ccc(F)c(Cl)c3)c2cc1OCCCN1CCOCC1
REMARK SMILES IDX 22 1 21 2 3 3 4 4 5 5 20 6 6 7 19 8 7 9 9 10 8 11 2 12 1 13
REMARK SMILES IDX 10 14 11 16 12 17 18 18 13 19 16 20 14 21 17 22 15 23 23 24
REMARK SMILES IDX 24 25 25 26 26 27 27 28 31 29 28 30 30 31 29 32
REMARK H PARENT 10 15
ROOT
ATOM      1  O   UNL     1      24.786   3.603  49.703  1.00  0.00    -0.490 OA
ENDROOT
BRANCH   1   2
ATOM      2  C   UNL     1      25.253   4.770  49.156  1.00  0.00     0.162 A 
ATOM      3  C   UNL     1      24.316   5.630  48.574  1.00  0.00     0.162 A 
ATOM      4  C   UNL     1      24.760   6.819  47.987  1.00  0.00     0.079 A 
ATOM      5  C   UNL     1      26.106   7.163  47.946  1.00  0.00     0.080 A 
ATOM      6  C   UNL     1      26.610   5.088  49.106  1.00  0.00     0.064 A 
ATOM      7  N   UNL     1      26.445   8.321  47.374  1.00  0.00    -0.236 NA
ATOM      8  C   UNL     1      27.050   6.289  48.496  1.00  0.00     0.047 A 
ATOM      9  C   UNL     1      27.747   8.627  47.353  1.00  0.00     0.224 A 
ATOM     10  C   UNL     1      28.394   6.703  48.396  1.00  0.00     0.141 A 
ATOM     11  N   UNL     1      28.738   7.876  47.836  1.00  0.00    -0.219 NA
BRANCH   3  12
ATOM     12  O   UNL     1      23.004   5.236  48.653  1.00  0.00    -0.493 OA
ATOM     13  C   UNL     1      22.132   6.019  49.458  1.00  0.00     0.278 C 
ENDBRANCH   3  12
BRANCH  10  14
ATOM     14  N   UNL     1      29.417   5.844  48.890  1.00  0.00    -0.340 N 
ATOM     15  H   UNL     1      29.025   4.915  49.019  1.00  0.00     0.168 HD
BRANCH  14  16
ATOM     16  C   UNL     1      30.772   5.790  48.491  1.00  0.00     0.041 A 
ATOM     17  C   UNL     1      31.721   6.550  49.196  1.00  0.00     0.029 A 
ATOM     18  C   UNL     1      31.190   5.104  47.340  1.00  0.00     0.049 A 
ATOM     19  C   UNL     1      33.060   6.577  48.799  1.00  0.00     0.043 A 
ATOM     20  C   UNL     1      32.529   5.131  46.940  1.00  0.00     0.078 A 
ATOM     21  C   UNL     1      33.457   5.863  47.674  1.00  0.00     0.141 A 
ATOM     22  Cl  UNL     1      33.009   4.268  45.528  1.00  0.00    -0.081 Cl
ATOM     23  F   UNL     1      34.746   5.907  47.305  1.00  0.00    -0.205 F 
ENDBRANCH  14  16
ENDBRANCH  10  14
ENDBRANCH   1   2
BRANCH   1  24
ATOM     24  C   UNL     1      24.776   3.568  51.135  1.00  0.00     0.231 C 
BRANCH  24  25
ATOM     25  C   UNL     1      25.326   2.217  51.591  1.00  0.00     0.057 C 
BRANCH  25  26
ATOM     26  C   UNL     1      26.832   2.297  51.884  1.00  0.00     0.088 C 
BRANCH  26  27
ATOM     27  N   UNL     1      27.131   2.009  53.295  1.00  0.00    -0.299 NA
ATOM     28  C   UNL     1      26.408   0.794  53.734  1.00  0.00     0.113 C 
ATOM     29  C   UNL     1      28.581   1.870  53.565  1.00  0.00     0.113 C 
ATOM     30  C   UNL     1      27.048   0.168  54.980  1.00  0.00     0.175 C 
ATOM     31  C   UNL     1      29.051   0.411  53.695  1.00  0.00     0.175 C 
ATOM     32  O   UNL     1      28.379  -0.310  54.738  1.00  0.00    -0.379 OA
ENDBRANCH  26  27
ENDBRANCH  25  26
ENDBRANCH  24  25
ENDBRANCH   1  24
TORSDOF 8
ENDMDL
