MODEL 1
REMARK minimizedAffinity -9.00743103
REMARK minimizedRMSD -1
REMARK SMILES CC1(C)CNc2cc(NC(=O)c3cccnc3NCc3ccncc3)ccc21
REMARK SMILES IDX 12 1 13 2 14 3 15 4 16 5 17 6 10 7 9 8 11 9 8 11 2 12 4 13
REMARK SMILES IDX 28 14 5 15 27 16 6 17 26 18 7 19 1 20 3 21 18 23 19 25 20 26
REMARK SMILES IDX 21 27 25 28 22 29 24 30 23 31
REMARK H PARENT 9 10 5 22 18 24
ROOT
ATOM      1  C   UNL     1      23.024   2.183  51.194  1.00  0.00     0.082 A 
ATOM      2  C   UNL     1      21.882   2.112  50.384  1.00  0.00     0.019 A 
ATOM      3  C   UNL     1      21.025   1.029  50.520  1.00  0.00     0.021 A 
ATOM      4  C   UNL     1      21.349   0.062  51.452  1.00  0.00     0.113 A 
ATOM      5  N   UNL     1      22.451   0.105  52.234  1.00  0.00    -0.239 NA
ATOM      6  C   UNL     1      23.297   1.154  52.108  1.00  0.00     0.139 A 
ENDROOT
BRANCH   1   7
ATOM      7  C   UNL     1      23.970   3.313  51.031  1.00  0.00     0.259 C 
ATOM      8  N   UNL     1      24.356   3.551  49.725  1.00  0.00    -0.322 N 
ATOM      9  O   UNL     1      24.320   3.916  52.039  1.00  0.00    -0.269 OA
ATOM     10  H   UNL     1      23.902   3.002  49.007  1.00  0.00     0.170 HD
BRANCH   8  11
ATOM     11  C   UNL     1      25.263   4.530  49.264  1.00  0.00     0.043 A 
ATOM     12  C   UNL     1      27.990   7.519  47.897  1.00  0.00     0.009 C 
ATOM     13  C   UNL     1      29.175   6.511  47.832  1.00  0.00     0.124 C 
ATOM     14  C   UNL     1      26.887   6.585  48.313  1.00  0.00    -0.017 A 
ATOM     15  N   UNL     1      28.861   5.388  48.732  1.00  0.00    -0.384 N 
ATOM     16  C   UNL     1      25.517   6.781  48.332  1.00  0.00     0.008 A 
ATOM     17  C   UNL     1      27.443   5.381  48.747  1.00  0.00     0.040 A 
ATOM     18  C   UNL     1      24.707   5.743  48.803  1.00  0.00     0.026 A 
ATOM     19  C   UNL     1      26.650   4.360  49.246  1.00  0.00     0.052 A 
ATOM     20  C   UNL     1      28.228   8.587  48.971  1.00  0.00     0.018 C 
ATOM     21  C   UNL     1      27.744   8.172  46.536  1.00  0.00     0.018 C 
ATOM     22  H   UNL     1      29.231   4.485  48.447  1.00  0.00     0.160 HD
ENDBRANCH   8  11
ENDBRANCH   1   7
BRANCH   6  23
ATOM     23  N   UNL     1      24.404   1.256  52.967  1.00  0.00    -0.365 N 
ATOM     24  H   UNL     1      24.761   2.214  52.920  1.00  0.00     0.162 HD
BRANCH  23  25
ATOM     25  C   UNL     1      25.456   0.265  52.817  1.00  0.00     0.150 C 
BRANCH  25  26
ATOM     26  C   UNL     1      26.755   0.765  53.398  1.00  0.00    -0.026 A 
ATOM     27  C   UNL     1      27.462   0.010  54.336  1.00  0.00     0.025 A 
ATOM     28  C   UNL     1      27.278   2.006  53.019  1.00  0.00     0.025 A 
ATOM     29  C   UNL     1      28.650   0.515  54.841  1.00  0.00     0.111 A 
ATOM     30  C   UNL     1      28.474   2.424  53.580  1.00  0.00     0.111 A 
ATOM     31  N   UNL     1      29.179   1.702  54.478  1.00  0.00    -0.265 NA
ENDBRANCH  25  26
ENDBRANCH  23  25
ENDBRANCH   6  23
TORSDOF 5
ENDMDL
MODEL 2
REMARK minimizedAffinity -8.88515663
REMARK minimizedRMSD -1
REMARK SMILES CC1(C)CNc2cc(NC(=O)c3cccnc3NCc3ccncc3)ccc21
REMARK SMILES IDX 12 1 13 2 14 3 15 4 16 5 17 6 10 7 9 8 11 9 8 11 2 12 4 13
REMARK SMILES IDX 28 14 5 15 27 16 6 17 26 18 7 19 1 20 3 21 18 23 19 25 20 26
REMARK SMILES IDX 21 27 25 28 22 29 24 30 23 31
REMARK H PARENT 9 10 5 22 18 24
ROOT
ATOM      1  C   UNL     1      23.039   1.285  52.827  1.00  0.00     0.082 A 
ATOM      2  C   UNL     1      21.653   1.278  52.617  1.00  0.00     0.019 A 
ATOM      3  C   UNL     1      20.931   0.133  52.922  1.00  0.00     0.021 A 
ATOM      4  C   UNL     1      21.624  -0.956  53.415  1.00  0.00     0.113 A 
ATOM      5  N   UNL     1      22.961  -0.974  53.615  1.00  0.00    -0.239 NA
ATOM      6  C   UNL     1      23.678   0.136  53.316  1.00  0.00     0.139 A 
ENDROOT
BRANCH   1   7
ATOM      7  C   UNL     1      23.830   2.486  52.467  1.00  0.00     0.259 C 
ATOM      8  N   UNL     1      23.843   2.778  51.116  1.00  0.00    -0.322 N 
ATOM      9  O   UNL     1      24.390   3.095  53.372  1.00  0.00    -0.269 OA
ATOM     10  H   UNL     1      23.255   2.210  50.520  1.00  0.00     0.170 HD
BRANCH   8  11
ATOM     11  C   UNL     1      24.527   3.832  50.473  1.00  0.00     0.043 A 
ATOM     12  C   UNL     1      26.588   7.046  48.558  1.00  0.00     0.009 C 
ATOM     13  C   UNL     1      27.809   6.148  48.204  1.00  0.00     0.124 C 
ATOM     14  C   UNL     1      25.699   6.019  49.204  1.00  0.00    -0.017 A 
ATOM     15  N   UNL     1      27.814   5.006  49.134  1.00  0.00    -0.384 N 
ATOM     16  C   UNL     1      24.359   6.092  49.543  1.00  0.00     0.008 A 
ATOM     17  C   UNL     1      26.445   4.872  49.477  1.00  0.00     0.040 A 
ATOM     18  C   UNL     1      23.776   4.989  50.173  1.00  0.00     0.026 A 
ATOM     19  C   UNL     1      25.882   3.786  50.130  1.00  0.00     0.052 A 
ATOM     20  C   UNL     1      26.975   8.136  49.565  1.00  0.00     0.018 C 
ATOM     21  C   UNL     1      25.976   7.668  47.303  1.00  0.00     0.018 C 
ATOM     22  H   UNL     1      28.185   4.137  48.757  1.00  0.00     0.160 HD
ENDBRANCH   8  11
ENDBRANCH   1   7
BRANCH   6  23
ATOM     23  N   UNL     1      25.055   0.162  53.591  1.00  0.00    -0.365 N 
ATOM     24  H   UNL     1      25.360   1.139  53.615  1.00  0.00     0.162 HD
BRANCH  23  25
ATOM     25  C   UNL     1      25.915  -0.667  52.762  1.00  0.00     0.150 C 
BRANCH  25  26
ATOM     26  C   UNL     1      27.369  -0.417  53.077  1.00  0.00    -0.026 A 
ATOM     27  C   UNL     1      27.832   0.870  53.361  1.00  0.00     0.025 A 
ATOM     28  C   UNL     1      28.292  -1.468  53.081  1.00  0.00     0.025 A 
ATOM     29  C   UNL     1      29.178   1.047  53.643  1.00  0.00     0.111 A 
ATOM     30  C   UNL     1      29.617  -1.190  53.375  1.00  0.00     0.111 A 
ATOM     31  N   UNL     1      30.082   0.045  53.665  1.00  0.00    -0.265 NA
ENDBRANCH  25  26
ENDBRANCH  23  25
ENDBRANCH   6  23
TORSDOF 5
ENDMDL
MODEL 3
REMARK minimizedAffinity -8.87055969
REMARK minimizedRMSD -1
REMARK SMILES CC1(C)CNc2cc(NC(=O)c3cccnc3NCc3ccncc3)ccc21
REMARK SMILES IDX 12 1 13 2 14 3 15 4 16 5 17 6 10 7 9 8 11 9 8 11 2 12 4 13
REMARK SMILES IDX 28 14 5 15 27 16 6 17 26 18 7 19 1 20 3 21 18 23 19 25 20 26
REMARK SMILES IDX 21 27 25 28 22 29 24 30 23 31
REMARK H PARENT 9 10 5 22 18 24
ROOT
ATOM      1  C   UNL     1      27.775   0.672  53.053  1.00  0.00     0.082 A 
ATOM      2  C   UNL     1      29.152   0.905  53.179  1.00  0.00     0.019 A 
ATOM      3  C   UNL     1      29.989  -0.155  53.500  1.00  0.00     0.021 A 
ATOM      4  C   UNL     1      29.415  -1.397  53.688  1.00  0.00     0.113 A 
ATOM      5  N   UNL     1      28.089  -1.642  53.583  1.00  0.00    -0.239 NA
ATOM      6  C   UNL     1      27.261  -0.615  53.275  1.00  0.00     0.139 A 
ENDROOT
BRANCH   1   7
ATOM      7  C   UNL     1      26.865   1.802  52.752  1.00  0.00     0.259 C 
ATOM      8  N   UNL     1      26.735   2.088  51.405  1.00  0.00    -0.322 N 
ATOM      9  O   UNL     1      26.325   2.370  53.695  1.00  0.00    -0.269 OA
ATOM     10  H   UNL     1      27.195   1.461  50.759  1.00  0.00     0.170 HD
BRANCH   8  11
ATOM     11  C   UNL     1      25.969   3.119  50.818  1.00  0.00     0.043 A 
ATOM     12  C   UNL     1      23.655   6.218  49.006  1.00  0.00     0.009 C 
ATOM     13  C   UNL     1      22.578   6.170  50.129  1.00  0.00     0.124 C 
ATOM     14  C   UNL     1      24.620   5.195  49.539  1.00  0.00    -0.017 A 
ATOM     15  N   UNL     1      22.655   4.846  50.771  1.00  0.00    -0.384 N 
ATOM     16  C   UNL     1      25.918   4.910  49.149  1.00  0.00     0.008 A 
ATOM     17  C   UNL     1      24.005   4.470  50.560  1.00  0.00     0.040 A 
ATOM     18  C   UNL     1      26.591   3.872  49.799  1.00  0.00     0.026 A 
ATOM     19  C   UNL     1      24.654   3.418  51.188  1.00  0.00     0.052 A 
ATOM     20  C   UNL     1      23.075   5.764  47.661  1.00  0.00     0.018 C 
ATOM     21  C   UNL     1      24.265   7.615  48.884  1.00  0.00     0.018 C 
ATOM     22  H   UNL     1      22.417   4.826  51.760  1.00  0.00     0.160 HD
ENDBRANCH   8  11
ENDBRANCH   1   7
BRANCH   6  23
ATOM     23  N   UNL     1      25.892  -0.865  53.084  1.00  0.00    -0.365 N 
ATOM     24  H   UNL     1      25.531  -0.183  52.412  1.00  0.00     0.162 HD
BRANCH  23  25
ATOM     25  C   UNL     1      25.062  -0.966  54.272  1.00  0.00     0.150 C 
BRANCH  25  26
ATOM     26  C   UNL     1      23.654  -0.505  53.986  1.00  0.00    -0.026 A 
ATOM     27  C   UNL     1      22.580  -0.956  54.756  1.00  0.00     0.025 A 
ATOM     28  C   UNL     1      23.389   0.378  52.934  1.00  0.00     0.025 A 
ATOM     29  C   UNL     1      21.305  -0.504  54.452  1.00  0.00     0.111 A 
ATOM     30  C   UNL     1      22.080   0.773  52.710  1.00  0.00     0.111 A 
ATOM     31  N   UNL     1      21.029   0.359  53.451  1.00  0.00    -0.265 NA
ENDBRANCH  25  26
ENDBRANCH  23  25
ENDBRANCH   6  23
TORSDOF 5
ENDMDL
MODEL 4
REMARK minimizedAffinity -8.8657217
REMARK minimizedRMSD -1
REMARK SMILES CC1(C)CNc2cc(NC(=O)c3cccnc3NCc3ccncc3)ccc21
REMARK SMILES IDX 12 1 13 2 14 3 15 4 16 5 17 6 10 7 9 8 11 9 8 11 2 12 4 13
REMARK SMILES IDX 28 14 5 15 27 16 6 17 26 18 7 19 1 20 3 21 18 23 19 25 20 26
REMARK SMILES IDX 21 27 25 28 22 29 24 30 23 31
REMARK H PARENT 9 10 5 22 18 24
ROOT
ATOM      1  C   UNL     1      22.490   0.831  52.851  1.00  0.00     0.082 A 
ATOM      2  C   UNL     1      21.157   0.993  53.255  1.00  0.00     0.019 A 
ATOM      3  C   UNL     1      20.650   0.174  54.253  1.00  0.00     0.021 A 
ATOM      4  C   UNL     1      21.492  -0.777  54.798  1.00  0.00     0.113 A 
ATOM      5  N   UNL     1      22.776  -0.958  54.416  1.00  0.00    -0.239 NA
ATOM      6  C   UNL     1      23.281  -0.167  53.440  1.00  0.00     0.139 A 
ENDROOT
BRANCH   1   7
ATOM      7  C   UNL     1      23.033   1.671  51.758  1.00  0.00     0.259 C 
ATOM      8  N   UNL     1      23.628   2.845  52.181  1.00  0.00    -0.322 N 
ATOM      9  O   UNL     1      22.906   1.266  50.607  1.00  0.00    -0.269 OA
ATOM     10  H   UNL     1      23.715   2.979  53.180  1.00  0.00     0.170 HD
BRANCH   8  11
ATOM     11  C   UNL     1      24.203   3.853  51.377  1.00  0.00     0.043 A 
ATOM     12  C   UNL     1      25.940   6.927  48.974  1.00  0.00     0.009 C 
ATOM     13  C   UNL     1      27.021   5.966  48.398  1.00  0.00     0.124 C 
ATOM     14  C   UNL     1      25.167   5.956  49.823  1.00  0.00    -0.017 A 
ATOM     15  N   UNL     1      27.176   4.846  49.341  1.00  0.00    -0.384 N 
ATOM     16  C   UNL     1      23.933   6.098  50.434  1.00  0.00     0.008 A 
ATOM     17  C   UNL     1      25.907   4.782  49.969  1.00  0.00     0.040 A 
ATOM     18  C   UNL     1      23.452   5.036  51.206  1.00  0.00     0.026 A 
ATOM     19  C   UNL     1      25.452   3.737  50.758  1.00  0.00     0.052 A 
ATOM     20  C   UNL     1      26.574   8.020  49.843  1.00  0.00     0.018 C 
ATOM     21  C   UNL     1      25.101   7.549  47.856  1.00  0.00     0.018 C 
ATOM     22  H   UNL     1      27.425   3.953  48.921  1.00  0.00     0.160 HD
ENDBRANCH   8  11
ENDBRANCH   1   7
BRANCH   6  23
ATOM     23  N   UNL     1      24.636  -0.288  53.085  1.00  0.00    -0.365 N 
ATOM     24  H   UNL     1      24.704  -0.932  52.292  1.00  0.00     0.162 HD
BRANCH  23  25
ATOM     25  C   UNL     1      25.575  -0.612  54.145  1.00  0.00     0.150 C 
BRANCH  25  26
ATOM     26  C   UNL     1      26.756   0.326  54.122  1.00  0.00    -0.026 A 
ATOM     27  C   UNL     1      27.946  -0.002  54.776  1.00  0.00     0.025 A 
ATOM     28  C   UNL     1      26.685   1.553  53.455  1.00  0.00     0.025 A 
ATOM     29  C   UNL     1      29.003   0.894  54.726  1.00  0.00     0.111 A 
ATOM     30  C   UNL     1      27.796   2.381  53.462  1.00  0.00     0.111 A 
ATOM     31  N   UNL     1      28.960   2.077  54.076  1.00  0.00    -0.265 NA
ENDBRANCH  25  26
ENDBRANCH  23  25
ENDBRANCH   6  23
TORSDOF 5
ENDMDL
MODEL 5
REMARK minimizedAffinity -8.83766079
REMARK minimizedRMSD -1
REMARK SMILES CC1(C)CNc2cc(NC(=O)c3cccnc3NCc3ccncc3)ccc21
REMARK SMILES IDX 12 1 13 2 14 3 15 4 16 5 17 6 10 7 9 8 11 9 8 11 2 12 4 13
REMARK SMILES IDX 28 14 5 15 27 16 6 17 26 18 7 19 1 20 3 21 18 23 19 25 20 26
REMARK SMILES IDX 21 27 25 28 22 29 24 30 23 31
REMARK H PARENT 9 10 5 22 18 24
ROOT
ATOM      1  C   UNL     1      26.990   1.583  53.358  1.00  0.00     0.082 A 
ATOM      2  C   UNL     1      28.214   2.206  53.638  1.00  0.00     0.019 A 
ATOM      3  C   UNL     1      29.217   1.475  54.259  1.00  0.00     0.021 A 
ATOM      4  C   UNL     1      28.952   0.158  54.581  1.00  0.00     0.113 A 
ATOM      5  N   UNL     1      27.775  -0.459  54.331  1.00  0.00    -0.239 NA
ATOM      6  C   UNL     1      26.787   0.245  53.729  1.00  0.00     0.139 A 
ENDROOT
BRANCH   1   7
ATOM      7  C   UNL     1      25.896   2.362  52.732  1.00  0.00     0.259 C 
ATOM      8  N   UNL     1      26.051   2.577  51.375  1.00  0.00    -0.322 N 
ATOM      9  O   UNL     1      24.978   2.741  53.452  1.00  0.00    -0.269 OA
ATOM     10  H   UNL     1      26.834   2.119  50.927  1.00  0.00     0.170 HD
BRANCH   8  11
ATOM     11  C   UNL     1      25.195   3.304  50.519  1.00  0.00     0.043 A 
ATOM     12  C   UNL     1      22.578   5.499  47.956  1.00  0.00     0.009 C 
ATOM     13  C   UNL     1      23.669   6.562  47.631  1.00  0.00     0.124 C 
ATOM     14  C   UNL     1      23.379   4.574  48.830  1.00  0.00    -0.017 A 
ATOM     15  N   UNL     1      24.660   6.536  48.720  1.00  0.00    -0.384 N 
ATOM     16  C   UNL     1      23.085   3.297  49.276  1.00  0.00     0.008 A 
ATOM     17  C   UNL     1      24.564   5.207  49.204  1.00  0.00     0.040 A 
ATOM     18  C   UNL     1      24.004   2.663  50.117  1.00  0.00     0.026 A 
ATOM     19  C   UNL     1      25.466   4.598  50.064  1.00  0.00     0.052 A 
ATOM     20  C   UNL     1      21.418   6.118  48.745  1.00  0.00     0.018 C 
ATOM     21  C   UNL     1      22.062   4.828  46.682  1.00  0.00     0.018 C 
ATOM     22  H   UNL     1      25.614   6.761  48.447  1.00  0.00     0.160 HD
ENDBRANCH   8  11
ENDBRANCH   1   7
BRANCH   6  23
ATOM     23  N   UNL     1      25.586  -0.402  53.390  1.00  0.00    -0.365 N 
ATOM     24  H   UNL     1      25.127   0.139  52.652  1.00  0.00     0.162 HD
BRANCH  23  25
ATOM     25  C   UNL     1      24.681  -0.737  54.477  1.00  0.00     0.150 C 
BRANCH  25  26
ATOM     26  C   UNL     1      23.244  -0.637  54.031  1.00  0.00    -0.026 A 
ATOM     27  C   UNL     1      22.221  -1.244  54.762  1.00  0.00     0.025 A 
ATOM     28  C   UNL     1      22.902   0.057  52.866  1.00  0.00     0.025 A 
ATOM     29  C   UNL     1      20.916  -1.125  54.310  1.00  0.00     0.111 A 
ATOM     30  C   UNL     1      21.568   0.121  52.496  1.00  0.00     0.111 A 
ATOM     31  N   UNL     1      20.562  -0.448  53.196  1.00  0.00    -0.265 NA
ENDBRANCH  25  26
ENDBRANCH  23  25
ENDBRANCH   6  23
TORSDOF 5
ENDMDL
MODEL 6
REMARK minimizedAffinity -8.78132057
REMARK minimizedRMSD -1
REMARK SMILES CC1(C)CNc2cc(NC(=O)c3cccnc3NCc3ccncc3)ccc21
REMARK SMILES IDX 12 1 13 2 14 3 15 4 16 5 17 6 10 7 9 8 11 9 8 11 2 12 4 13
REMARK SMILES IDX 28 14 5 15 27 16 6 17 26 18 7 19 1 20 3 21 18 23 19 25 20 26
REMARK SMILES IDX 21 27 25 28 22 29 24 30 23 31
REMARK H PARENT 9 10 5 22 18 24
ROOT
ATOM      1  C   UNL     1      23.052   1.087  53.153  1.00  0.00     0.082 A 
ATOM      2  C   UNL     1      21.664   1.174  52.974  1.00  0.00     0.019 A 
ATOM      3  C   UNL     1      20.872   0.084  53.304  1.00  0.00     0.021 A 
ATOM      4  C   UNL     1      21.499  -1.047  53.790  1.00  0.00     0.113 A 
ATOM      5  N   UNL     1      22.836  -1.157  53.960  1.00  0.00    -0.239 NA
ATOM      6  C   UNL     1      23.620  -0.101  53.637  1.00  0.00     0.139 A 
ENDROOT
BRANCH   1   7
ATOM      7  C   UNL     1      23.915   2.228  52.766  1.00  0.00     0.259 C 
ATOM      8  N   UNL     1      23.657   2.739  51.507  1.00  0.00    -0.322 N 
ATOM      9  O   UNL     1      24.760   2.605  53.570  1.00  0.00    -0.269 OA
ATOM     10  H   UNL     1      22.864   2.353  51.012  1.00  0.00     0.170 HD
BRANCH   8  11
ATOM     11  C   UNL     1      24.329   3.797  50.857  1.00  0.00     0.043 A 
ATOM     12  C   UNL     1      26.345   6.987  48.857  1.00  0.00     0.009 C 
ATOM     13  C   UNL     1      26.108   7.974  50.038  1.00  0.00     0.124 C 
ATOM     14  C   UNL     1      25.733   5.744  49.441  1.00  0.00    -0.017 A 
ATOM     15  N   UNL     1      24.956   7.481  50.813  1.00  0.00    -0.384 N 
ATOM     16  C   UNL     1      25.808   4.430  49.011  1.00  0.00     0.008 A 
ATOM     17  C   UNL     1      24.983   6.085  50.567  1.00  0.00     0.040 A 
ATOM     18  C   UNL     1      25.108   3.457  49.730  1.00  0.00     0.026 A 
ATOM     19  C   UNL     1      24.260   5.132  51.267  1.00  0.00     0.052 A 
ATOM     20  C   UNL     1      25.579   7.428  47.604  1.00  0.00     0.018 C 
ATOM     21  C   UNL     1      27.835   6.838  48.551  1.00  0.00     0.018 C 
ATOM     22  H   UNL     1      24.984   7.680  51.810  1.00  0.00     0.160 HD
ENDBRANCH   8  11
ENDBRANCH   1   7
BRANCH   6  23
ATOM     23  N   UNL     1      25.003  -0.168  53.880  1.00  0.00    -0.365 N 
ATOM     24  H   UNL     1      25.322   0.757  54.181  1.00  0.00     0.162 HD
BRANCH  23  25
ATOM     25  C   UNL     1      25.837  -0.729  52.831  1.00  0.00     0.150 C 
BRANCH  25  26
ATOM     26  C   UNL     1      27.296  -0.467  53.106  1.00  0.00    -0.026 A 
ATOM     27  C   UNL     1      28.223  -1.512  53.122  1.00  0.00     0.025 A 
ATOM     28  C   UNL     1      27.756   0.829  53.362  1.00  0.00     0.025 A 
ATOM     29  C   UNL     1      29.553  -1.219  53.381  1.00  0.00     0.111 A 
ATOM     30  C   UNL     1      29.106   1.020  53.609  1.00  0.00     0.111 A 
ATOM     31  N   UNL     1      30.020   0.025  53.617  1.00  0.00    -0.265 NA
ENDBRANCH  25  26
ENDBRANCH  23  25
ENDBRANCH   6  23
TORSDOF 5
ENDMDL
MODEL 7
REMARK minimizedAffinity -8.60639954
REMARK minimizedRMSD -1
REMARK SMILES CC1(C)CNc2cc(NC(=O)c3cccnc3NCc3ccncc3)ccc21
REMARK SMILES IDX 12 1 13 2 14 3 15 4 16 5 17 6 10 7 9 8 11 9 8 11 2 12 4 13
REMARK SMILES IDX 28 14 5 15 27 16 6 17 26 18 7 19 1 20 3 21 18 23 19 25 20 26
REMARK SMILES IDX 21 27 25 28 22 29 24 30 23 31
REMARK H PARENT 9 10 5 22 18 24
ROOT
ATOM      1  C   UNL     1      27.276   1.690  52.957  1.00  0.00     0.082 A 
ATOM      2  C   UNL     1      28.460   2.271  53.432  1.00  0.00     0.019 A 
ATOM      3  C   UNL     1      29.192   1.609  54.407  1.00  0.00     0.021 A 
ATOM      4  C   UNL     1      28.708   0.401  54.870  1.00  0.00     0.113 A 
ATOM      5  N   UNL     1      27.563  -0.172  54.434  1.00  0.00    -0.239 NA
ATOM      6  C   UNL     1      26.837   0.467  53.486  1.00  0.00     0.139 A 
ENDROOT
BRANCH   1   7
ATOM      7  C   UNL     1      26.462   2.406  51.945  1.00  0.00     0.259 C 
ATOM      8  N   UNL     1      25.263   2.901  52.423  1.00  0.00    -0.322 N 
ATOM      9  O   UNL     1      26.908   2.489  50.806  1.00  0.00    -0.269 OA
ATOM     10  H   UNL     1      25.094   2.808  53.417  1.00  0.00     0.170 HD
BRANCH   8  11
ATOM     11  C   UNL     1      24.271   3.594  51.696  1.00  0.00     0.043 A 
ATOM     12  C   UNL     1      21.249   5.660  49.497  1.00  0.00     0.009 C 
ATOM     13  C   UNL     1      21.412   6.954  50.348  1.00  0.00     0.124 C 
ATOM     14  C   UNL     1      22.327   4.814  50.116  1.00  0.00    -0.017 A 
ATOM     15  N   UNL     1      22.014   6.572  51.637  1.00  0.00    -0.384 N 
ATOM     16  C   UNL     1      22.880   3.622  49.681  1.00  0.00     0.008 A 
ATOM     17  C   UNL     1      22.743   5.401  51.311  1.00  0.00     0.040 A 
ATOM     18  C   UNL     1      23.860   3.019  50.475  1.00  0.00     0.026 A 
ATOM     19  C   UNL     1      23.691   4.794  52.121  1.00  0.00     0.052 A 
ATOM     20  C   UNL     1      19.871   5.023  49.714  1.00  0.00     0.018 C 
ATOM     21  C   UNL     1      21.482   5.941  48.012  1.00  0.00     0.018 C 
ATOM     22  H   UNL     1      22.615   7.274  52.062  1.00  0.00     0.160 HD
ENDBRANCH   8  11
ENDBRANCH   1   7
BRANCH   6  23
ATOM     23  N   UNL     1      25.687  -0.150  52.964  1.00  0.00    -0.365 N 
ATOM     24  H   UNL     1      25.143   0.557  52.461  1.00  0.00     0.162 HD
BRANCH  23  25
ATOM     25  C   UNL     1      24.873  -0.926  53.884  1.00  0.00     0.150 C 
BRANCH  25  26
ATOM     26  C   UNL     1      23.427  -0.505  53.809  1.00  0.00    -0.026 A 
ATOM     27  C   UNL     1      22.971   0.323  52.781  1.00  0.00     0.025 A 
ATOM     28  C   UNL     1      22.507  -0.926  54.776  1.00  0.00     0.025 A 
ATOM     29  C   UNL     1      21.632   0.682  52.757  1.00  0.00     0.111 A 
ATOM     30  C   UNL     1      21.189  -0.513  54.665  1.00  0.00     0.111 A 
ATOM     31  N   UNL     1      20.726   0.277  53.672  1.00  0.00    -0.265 NA
ENDBRANCH  25  26
ENDBRANCH  23  25
ENDBRANCH   6  23
TORSDOF 5
ENDMDL
MODEL 8
REMARK minimizedAffinity -8.56481457
REMARK minimizedRMSD -1
REMARK SMILES CC1(C)CNc2cc(NC(=O)c3cccnc3NCc3ccncc3)ccc21
REMARK SMILES IDX 12 1 13 2 14 3 15 4 16 5 17 6 10 7 9 8 11 9 8 11 2 12 4 13
REMARK SMILES IDX 28 14 5 15 27 16 6 17 26 18 7 19 1 20 3 21 18 23 19 25 20 26
REMARK SMILES IDX 21 27 25 28 22 29 24 30 23 31
REMARK H PARENT 9 10 5 22 18 24
ROOT
ATOM      1  C   UNL     1      26.349   5.933  48.802  1.00  0.00     0.082 A 
ATOM      2  C   UNL     1      25.005   6.247  48.559  1.00  0.00     0.019 A 
ATOM      3  C   UNL     1      24.684   7.507  48.075  1.00  0.00     0.021 A 
ATOM      4  C   UNL     1      25.716   8.400  47.862  1.00  0.00     0.113 A 
ATOM      5  N   UNL     1      27.018   8.122  48.100  1.00  0.00    -0.239 NA
ATOM      6  C   UNL     1      27.344   6.897  48.576  1.00  0.00     0.139 A 
ENDROOT
BRANCH   1   7
ATOM      7  C   UNL     1      26.704   4.605  49.358  1.00  0.00     0.259 C 
ATOM      8  N   UNL     1      25.953   4.226  50.455  1.00  0.00    -0.322 N 
ATOM      9  O   UNL     1      27.609   3.980  48.815  1.00  0.00    -0.269 OA
ATOM     10  H   UNL     1      25.189   4.836  50.718  1.00  0.00     0.170 HD
BRANCH   8  11
ATOM     11  C   UNL     1      26.078   3.040  51.211  1.00  0.00     0.043 A 
ATOM     12  C   UNL     1      26.448  -0.567  53.467  1.00  0.00     0.009 C 
ATOM     13  C   UNL     1      27.770  -0.095  54.141  1.00  0.00     0.124 C 
ATOM     14  C   UNL     1      26.128   0.659  52.657  1.00  0.00    -0.017 A 
ATOM     15  N   UNL     1      28.372   0.936  53.279  1.00  0.00    -0.384 N 
ATOM     16  C   UNL     1      24.962   1.006  51.996  1.00  0.00     0.008 A 
ATOM     17  C   UNL     1      27.249   1.488  52.613  1.00  0.00     0.040 A 
ATOM     18  C   UNL     1      24.942   2.206  51.278  1.00  0.00     0.026 A 
ATOM     19  C   UNL     1      27.248   2.663  51.878  1.00  0.00     0.052 A 
ATOM     20  C   UNL     1      26.691  -1.772  52.551  1.00  0.00     0.018 C 
ATOM     21  C   UNL     1      25.380  -0.893  54.512  1.00  0.00     0.018 C 
ATOM     22  H   UNL     1      28.903   1.655  53.765  1.00  0.00     0.160 HD
ENDBRANCH   8  11
ENDBRANCH   1   7
BRANCH   6  23
ATOM     23  N   UNL     1      28.697   6.563  48.754  1.00  0.00    -0.365 N 
ATOM     24  H   UNL     1      29.043   7.052  49.585  1.00  0.00     0.162 HD
BRANCH  23  25
ATOM     25  C   UNL     1      29.578   6.722  47.610  1.00  0.00     0.150 C 
BRANCH  25  26
ATOM     26  C   UNL     1      30.933   6.120  47.886  1.00  0.00    -0.026 A 
ATOM     27  C   UNL     1      31.955   6.881  48.459  1.00  0.00     0.025 A 
ATOM     28  C   UNL     1      31.204   4.786  47.563  1.00  0.00     0.025 A 
ATOM     29  C   UNL     1      33.183   6.281  48.692  1.00  0.00     0.111 A 
ATOM     30  C   UNL     1      32.464   4.277  47.835  1.00  0.00     0.111 A 
ATOM     31  N   UNL     1      33.460   4.992  48.401  1.00  0.00    -0.265 NA
ENDBRANCH  25  26
ENDBRANCH  23  25
ENDBRANCH   6  23
TORSDOF 5
ENDMDL
MODEL 9
REMARK minimizedAffinity -8.41261196
REMARK minimizedRMSD -1
REMARK SMILES CC1(C)CNc2cc(NC(=O)c3cccnc3NCc3ccncc3)ccc21
REMARK SMILES IDX 12 1 13 2 14 3 15 4 16 5 17 6 10 7 9 8 11 9 8 11 2 12 4 13
REMARK SMILES IDX 28 14 5 15 27 16 6 17 26 18 7 19 1 20 3 21 18 23 19 25 20 26
REMARK SMILES IDX 21 27 25 28 22 29 24 30 23 31
REMARK H PARENT 9 10 5 22 18 24
ROOT
ATOM      1  C   UNL     1      23.097   2.694  50.981  1.00  0.00     0.082 A 
ATOM      2  C   UNL     1      21.888   2.617  50.275  1.00  0.00     0.019 A 
ATOM      3  C   UNL     1      21.098   1.484  50.412  1.00  0.00     0.021 A 
ATOM      4  C   UNL     1      21.552   0.476  51.240  1.00  0.00     0.113 A 
ATOM      5  N   UNL     1      22.719   0.524  51.920  1.00  0.00    -0.239 NA
ATOM      6  C   UNL     1      23.501   1.622  51.791  1.00  0.00     0.139 A 
ENDROOT
BRANCH   1   7
ATOM      7  C   UNL     1      23.970   3.879  50.812  1.00  0.00     0.259 C 
ATOM      8  N   UNL     1      24.784   3.835  49.695  1.00  0.00    -0.322 N 
ATOM      9  O   UNL     1      23.901   4.766  51.656  1.00  0.00    -0.269 OA
ATOM     10  H   UNL     1      24.649   3.058  49.062  1.00  0.00     0.170 HD
BRANCH   8  11
ATOM     11  C   UNL     1      25.736   4.796  49.290  1.00  0.00     0.043 A 
ATOM     12  C   UNL     1      28.621   7.682  48.032  1.00  0.00     0.009 C 
ATOM     13  C   UNL     1      27.764   8.873  48.552  1.00  0.00     0.124 C 
ATOM     14  C   UNL     1      27.752   6.536  48.470  1.00  0.00    -0.017 A 
ATOM     15  N   UNL     1      26.365   8.420  48.629  1.00  0.00    -0.384 N 
ATOM     16  C   UNL     1      28.032   5.181  48.529  1.00  0.00     0.008 A 
ATOM     17  C   UNL     1      26.494   7.022  48.827  1.00  0.00     0.040 A 
ATOM     18  C   UNL     1      27.018   4.315  48.948  1.00  0.00     0.026 A 
ATOM     19  C   UNL     1      25.474   6.167  49.213  1.00  0.00     0.052 A 
ATOM     20  C   UNL     1      28.746   7.713  46.504  1.00  0.00     0.018 C 
ATOM     21  C   UNL     1      30.005   7.671  48.683  1.00  0.00     0.018 C 
ATOM     22  H   UNL     1      25.808   8.846  49.367  1.00  0.00     0.160 HD
ENDBRANCH   8  11
ENDBRANCH   1   7
BRANCH   6  23
ATOM     23  N   UNL     1      24.679   1.724  52.552  1.00  0.00    -0.365 N 
ATOM     24  H   UNL     1      25.020   2.687  52.489  1.00  0.00     0.162 HD
BRANCH  23  25
ATOM     25  C   UNL     1      25.724   0.748  52.294  1.00  0.00     0.150 C 
BRANCH  25  26
ATOM     26  C   UNL     1      26.943   1.030  53.136  1.00  0.00    -0.026 A 
ATOM     27  C   UNL     1      27.695   2.191  52.946  1.00  0.00     0.025 A 
ATOM     28  C   UNL     1      27.357   0.128  54.122  1.00  0.00     0.025 A 
ATOM     29  C   UNL     1      28.808   2.403  53.746  1.00  0.00     0.111 A 
ATOM     30  C   UNL     1      28.483   0.430  54.871  1.00  0.00     0.111 A 
ATOM     31  N   UNL     1      29.216   1.553  54.711  1.00  0.00    -0.265 NA
ENDBRANCH  25  26
ENDBRANCH  23  25
ENDBRANCH   6  23
TORSDOF 5
ENDMDL
MODEL 10
REMARK minimizedAffinity -8.36835194
REMARK minimizedRMSD -1
REMARK SMILES CC1(C)CNc2cc(NC(=O)c3cccnc3NCc3ccncc3)ccc21
REMARK SMILES IDX 12 1 13 2 14 3 15 4 16 5 17 6 10 7 9 8 11 9 8 11 2 12 4 13
REMARK SMILES IDX 28 14 5 15 27 16 6 17 26 18 7 19 1 20 3 21 18 23 19 25 20 26
REMARK SMILES IDX 21 27 25 28 22 29 24 30 23 31
REMARK H PARENT 9 10 5 22 18 24
ROOT
ATOM      1  C   UNL     1      22.182   0.703  52.852  1.00  0.00     0.082 A 
ATOM      2  C   UNL     1      20.801   0.476  52.924  1.00  0.00     0.019 A 
ATOM      3  C   UNL     1      20.324  -0.529  53.754  1.00  0.00     0.021 A 
ATOM      4  C   UNL     1      21.247  -1.267  54.469  1.00  0.00     0.113 A 
ATOM      5  N   UNL     1      22.584  -1.074  54.406  1.00  0.00    -0.239 NA
ATOM      6  C   UNL     1      23.061  -0.099  53.596  1.00  0.00     0.139 A 
ENDROOT
BRANCH   1   7
ATOM      7  C   UNL     1      22.708   1.744  51.939  1.00  0.00     0.259 C 
ATOM      8  N   UNL     1      22.216   3.015  52.176  1.00  0.00    -0.322 N 
ATOM      9  O   UNL     1      23.507   1.398  51.074  1.00  0.00    -0.269 OA
ATOM     10  H   UNL     1      21.624   3.130  52.988  1.00  0.00     0.170 HD
BRANCH   8  11
ATOM     11  C   UNL     1      22.507   4.195  51.458  1.00  0.00     0.043 A 
ATOM     12  C   UNL     1      23.349   7.771  49.281  1.00  0.00     0.009 C 
ATOM     13  C   UNL     1      24.473   8.196  50.272  1.00  0.00     0.124 C 
ATOM     14  C   UNL     1      22.972   6.446  49.882  1.00  0.00    -0.017 A 
ATOM     15  N   UNL     1      24.226   7.512  51.553  1.00  0.00    -0.384 N 
ATOM     16  C   UNL     1      22.192   5.426  49.364  1.00  0.00     0.008 A 
ATOM     17  C   UNL     1      23.526   6.344  51.158  1.00  0.00     0.040 A 
ATOM     18  C   UNL     1      21.969   4.296  50.157  1.00  0.00     0.026 A 
ATOM     19  C   UNL     1      23.283   5.242  51.964  1.00  0.00     0.052 A 
ATOM     20  C   UNL     1      22.165   8.745  49.334  1.00  0.00     0.018 C 
ATOM     21  C   UNL     1      23.885   7.655  47.854  1.00  0.00     0.018 C 
ATOM     22  H   UNL     1      25.058   7.279  52.090  1.00  0.00     0.160 HD
ENDBRANCH   8  11
ENDBRANCH   1   7
BRANCH   6  23
ATOM     23  N   UNL     1      24.441   0.169  53.577  1.00  0.00    -0.365 N 
ATOM     24  H   UNL     1      24.588   1.066  53.107  1.00  0.00     0.162 HD
BRANCH  23  25
ATOM     25  C   UNL     1      25.314  -0.874  53.067  1.00  0.00     0.150 C 
BRANCH  25  26
ATOM     26  C   UNL     1      26.737  -0.653  53.517  1.00  0.00    -0.026 A 
ATOM     27  C   UNL     1      27.799  -1.311  52.893  1.00  0.00     0.025 A 
ATOM     28  C   UNL     1      27.026   0.210  54.579  1.00  0.00     0.025 A 
ATOM     29  C   UNL     1      29.088  -1.075  53.345  1.00  0.00     0.111 A 
ATOM     30  C   UNL     1      28.348   0.382  54.957  1.00  0.00     0.111 A 
ATOM     31  N   UNL     1      29.390  -0.236  54.358  1.00  0.00    -0.265 NA
ENDBRANCH  25  26
ENDBRANCH  23  25
ENDBRANCH   6  23
TORSDOF 5
ENDMDL
MODEL 11
REMARK minimizedAffinity -8.1928339
REMARK minimizedRMSD -1
REMARK SMILES CC1(C)CNc2cc(NC(=O)c3cccnc3NCc3ccncc3)ccc21
REMARK SMILES IDX 12 1 13 2 14 3 15 4 16 5 17 6 10 7 9 8 11 9 8 11 2 12 4 13
REMARK SMILES IDX 28 14 5 15 27 16 6 17 26 18 7 19 1 20 3 21 18 23 19 25 20 26
REMARK SMILES IDX 21 27 25 28 22 29 24 30 23 31
REMARK H PARENT 9 10 5 22 18 24
ROOT
ATOM      1  C   UNL     1      24.478   3.849  49.964  1.00  0.00     0.082 A 
ATOM      2  C   UNL     1      23.422   3.700  49.055  1.00  0.00     0.019 A 
ATOM      3  C   UNL     1      22.546   2.635  49.207  1.00  0.00     0.021 A 
ATOM      4  C   UNL     1      22.768   1.761  50.253  1.00  0.00     0.113 A 
ATOM      5  N   UNL     1      23.787   1.879  51.135  1.00  0.00    -0.239 NA
ATOM      6  C   UNL     1      24.650   2.912  50.994  1.00  0.00     0.139 A 
ENDROOT
BRANCH   1   7
ATOM      7  C   UNL     1      25.445   4.959  49.790  1.00  0.00     0.259 C 
ATOM      8  N   UNL     1      26.396   4.740  48.810  1.00  0.00    -0.322 N 
ATOM      9  O   UNL     1      25.324   5.943  50.512  1.00  0.00    -0.269 OA
ATOM     10  H   UNL     1      26.294   3.901  48.255  1.00  0.00     0.170 HD
BRANCH   8  11
ATOM     11  C   UNL     1      27.457   5.595  48.439  1.00  0.00     0.043 A 
ATOM     12  C   UNL     1      30.654   8.206  47.345  1.00  0.00     0.009 C 
ATOM     13  C   UNL     1      31.676   7.034  47.252  1.00  0.00     0.124 C 
ATOM     14  C   UNL     1      29.408   7.428  47.669  1.00  0.00    -0.017 A 
ATOM     15  N   UNL     1      31.161   5.923  48.070  1.00  0.00    -0.384 N 
ATOM     16  C   UNL     1      28.083   7.830  47.658  1.00  0.00     0.008 A 
ATOM     17  C   UNL     1      29.759   6.131  48.042  1.00  0.00     0.040 A 
ATOM     18  C   UNL     1      27.109   6.903  48.039  1.00  0.00     0.026 A 
ATOM     19  C   UNL     1      28.803   5.215  48.452  1.00  0.00     0.052 A 
ATOM     20  C   UNL     1      31.008   9.161  48.491  1.00  0.00     0.018 C 
ATOM     21  C   UNL     1      30.563   8.966  46.021  1.00  0.00     0.018 C 
ATOM     22  H   UNL     1      31.402   4.991  47.741  1.00  0.00     0.160 HD
ENDBRANCH   8  11
ENDBRANCH   1   7
BRANCH   6  23
ATOM     23  N   UNL     1      25.668   3.096  51.946  1.00  0.00    -0.365 N 
ATOM     24  H   UNL     1      25.827   4.101  52.057  1.00  0.00     0.162 HD
BRANCH  23  25
ATOM     25  C   UNL     1      26.903   2.357  51.751  1.00  0.00     0.150 C 
BRANCH  25  26
ATOM     26  C   UNL     1      27.203   1.484  52.943  1.00  0.00    -0.026 A 
ATOM     27  C   UNL     1      28.519   1.174  53.295  1.00  0.00     0.025 A 
ATOM     28  C   UNL     1      26.169   0.953  53.721  1.00  0.00     0.025 A 
ATOM     29  C   UNL     1      28.742   0.367  54.399  1.00  0.00     0.111 A 
ATOM     30  C   UNL     1      26.493   0.156  54.807  1.00  0.00     0.111 A 
ATOM     31  N   UNL     1      27.759  -0.145  55.171  1.00  0.00    -0.265 NA
ENDBRANCH  25  26
ENDBRANCH  23  25
ENDBRANCH   6  23
TORSDOF 5
ENDMDL
MODEL 12
REMARK minimizedAffinity -8.15900707
REMARK minimizedRMSD -1
REMARK SMILES CC1(C)CNc2cc(NC(=O)c3cccnc3NCc3ccncc3)ccc21
REMARK SMILES IDX 12 1 13 2 14 3 15 4 16 5 17 6 10 7 9 8 11 9 8 11 2 12 4 13
REMARK SMILES IDX 28 14 5 15 27 16 6 17 26 18 7 19 1 20 3 21 18 23 19 25 20 26
REMARK SMILES IDX 21 27 25 28 22 29 24 30 23 31
REMARK H PARENT 9 10 5 22 18 24
ROOT
ATOM      1  C   UNL     1      30.137  10.321  49.020  1.00  0.00     0.082 A 
ATOM      2  C   UNL     1      30.715  11.570  48.751  1.00  0.00     0.019 A 
ATOM      3  C   UNL     1      29.902  12.694  48.707  1.00  0.00     0.021 A 
ATOM      4  C   UNL     1      28.548  12.521  48.923  1.00  0.00     0.113 A 
ATOM      5  N   UNL     1      27.969  11.324  49.171  1.00  0.00    -0.239 NA
ATOM      6  C   UNL     1      28.751  10.220  49.213  1.00  0.00     0.139 A 
ENDROOT
BRANCH   1   7
ATOM      7  C   UNL     1      30.987   9.107  49.030  1.00  0.00     0.259 C 
ATOM      8  N   UNL     1      31.169   8.526  47.788  1.00  0.00    -0.322 N 
ATOM      9  O   UNL     1      31.437   8.732  50.107  1.00  0.00    -0.269 OA
ATOM     10  H   UNL     1      30.787   9.021  46.993  1.00  0.00     0.170 HD
BRANCH   8  11
ATOM     11  C   UNL     1      31.897   7.354  47.489  1.00  0.00     0.043 A 
ATOM     12  C   UNL     1      34.120   3.814  46.615  1.00  0.00     0.009 C 
ATOM     13  C   UNL     1      32.834   2.997  46.296  1.00  0.00     0.124 C 
ATOM     14  C   UNL     1      33.504   5.158  46.889  1.00  0.00    -0.017 A 
ATOM     15  N   UNL     1      31.703   3.658  46.970  1.00  0.00    -0.384 N 
ATOM     16  C   UNL     1      34.102   6.401  47.010  1.00  0.00     0.008 A 
ATOM     17  C   UNL     1      32.126   5.008  47.049  1.00  0.00     0.040 A 
ATOM     18  C   UNL     1      33.288   7.499  47.304  1.00  0.00     0.026 A 
ATOM     19  C   UNL     1      31.317   6.087  47.373  1.00  0.00     0.052 A 
ATOM     20  C   UNL     1      34.823   3.276  47.867  1.00  0.00     0.018 C 
ATOM     21  C   UNL     1      35.079   3.823  45.423  1.00  0.00     0.018 C 
ATOM     22  H   UNL     1      30.806   3.580  46.495  1.00  0.00     0.160 HD
ENDBRANCH   8  11
ENDBRANCH   1   7
BRANCH   6  23
ATOM     23  N   UNL     1      28.179   8.981  49.548  1.00  0.00    -0.365 N 
ATOM     24  H   UNL     1      28.936   8.313  49.720  1.00  0.00     0.162 HD
BRANCH  23  25
ATOM     25  C   UNL     1      27.166   8.452  48.651  1.00  0.00     0.150 C 
BRANCH  25  26
ATOM     26  C   UNL     1      26.935   6.983  48.906  1.00  0.00    -0.026 A 
ATOM     27  C   UNL     1      27.816   6.020  48.409  1.00  0.00     0.025 A 
ATOM     28  C   UNL     1      25.825   6.549  49.639  1.00  0.00     0.025 A 
ATOM     29  C   UNL     1      27.559   4.683  48.670  1.00  0.00     0.111 A 
ATOM     30  C   UNL     1      25.655   5.190  49.847  1.00  0.00     0.111 A 
ATOM     31  N   UNL     1      26.502   4.244  49.386  1.00  0.00    -0.265 NA
ENDBRANCH  25  26
ENDBRANCH  23  25
ENDBRANCH   6  23
TORSDOF 5
ENDMDL
MODEL 13
REMARK minimizedAffinity -8.15494347
REMARK minimizedRMSD -1
REMARK SMILES CC1(C)CNc2cc(NC(=O)c3cccnc3NCc3ccncc3)ccc21
REMARK SMILES IDX 12 1 13 2 14 3 15 4 16 5 17 6 10 7 9 8 11 9 8 11 2 12 4 13
REMARK SMILES IDX 28 14 5 15 27 16 6 17 26 18 7 19 1 20 3 21 18 23 19 25 20 26
REMARK SMILES IDX 21 27 25 28 22 29 24 30 23 31
REMARK H PARENT 9 10 5 22 18 24
ROOT
ATOM      1  C   UNL     1      19.277   0.617  51.475  1.00  0.00     0.082 A 
ATOM      2  C   UNL     1      18.501  -0.436  51.977  1.00  0.00     0.019 A 
ATOM      3  C   UNL     1      17.130  -0.264  52.102  1.00  0.00     0.021 A 
ATOM      4  C   UNL     1      16.595   0.953  51.727  1.00  0.00     0.113 A 
ATOM      5  N   UNL     1      17.326   1.986  51.251  1.00  0.00    -0.239 NA
ATOM      6  C   UNL     1      18.666   1.832  51.130  1.00  0.00     0.139 A 
ENDROOT
BRANCH   1   7
ATOM      7  C   UNL     1      20.748   0.463  51.375  1.00  0.00     0.259 C 
ATOM      8  N   UNL     1      21.412   0.520  52.587  1.00  0.00    -0.322 N 
ATOM      9  O   UNL     1      21.233   0.308  50.260  1.00  0.00    -0.269 OA
ATOM     10  H   UNL     1      20.840   0.572  53.419  1.00  0.00     0.170 HD
BRANCH   8  11
ATOM     11  C   UNL     1      22.805   0.435  52.805  1.00  0.00     0.043 A 
ATOM     12  C   UNL     1      27.014   0.141  53.460  1.00  0.00     0.009 C 
ATOM     13  C   UNL     1      27.306   1.429  52.636  1.00  0.00     0.124 C 
ATOM     14  C   UNL     1      25.513   0.130  53.388  1.00  0.00    -0.017 A 
ATOM     15  N   UNL     1      26.171   1.647  51.723  1.00  0.00    -0.384 N 
ATOM     16  C   UNL     1      24.594  -0.618  54.104  1.00  0.00     0.008 A 
ATOM     17  C   UNL     1      25.093   1.028  52.406  1.00  0.00     0.040 A 
ATOM     18  C   UNL     1      23.237  -0.455  53.812  1.00  0.00     0.026 A 
ATOM     19  C   UNL     1      23.751   1.173  52.088  1.00  0.00     0.052 A 
ATOM     20  C   UNL     1      27.598  -1.100  52.775  1.00  0.00     0.018 C 
ATOM     21  C   UNL     1      27.547   0.267  54.888  1.00  0.00     0.018 C 
ATOM     22  H   UNL     1      25.962   2.619  51.510  1.00  0.00     0.160 HD
ENDBRANCH   8  11
ENDBRANCH   1   7
BRANCH   6  23
ATOM     23  N   UNL     1      19.431   2.866  50.563  1.00  0.00    -0.365 N 
ATOM     24  H   UNL     1      20.189   2.444  50.020  1.00  0.00     0.162 HD
BRANCH  23  25
ATOM     25  C   UNL     1      19.903   3.910  51.457  1.00  0.00     0.150 C 
BRANCH  25  26
ATOM     26  C   UNL     1      21.389   4.118  51.304  1.00  0.00    -0.026 A 
ATOM     27  C   UNL     1      22.166   4.567  52.374  1.00  0.00     0.025 A 
ATOM     28  C   UNL     1      22.025   3.876  50.082  1.00  0.00     0.025 A 
ATOM     29  C   UNL     1      23.528   4.744  52.183  1.00  0.00     0.111 A 
ATOM     30  C   UNL     1      23.392   4.081  49.990  1.00  0.00     0.111 A 
ATOM     31  N   UNL     1      24.163   4.502  51.016  1.00  0.00    -0.265 NA
ENDBRANCH  25  26
ENDBRANCH  23  25
ENDBRANCH   6  23
TORSDOF 5
ENDMDL
MODEL 14
REMARK minimizedAffinity -8.12083626
REMARK minimizedRMSD -1
REMARK SMILES CC1(C)CNc2cc(NC(=O)c3cccnc3NCc3ccncc3)ccc21
REMARK SMILES IDX 12 1 13 2 14 3 15 4 16 5 17 6 10 7 9 8 11 9 8 11 2 12 4 13
REMARK SMILES IDX 28 14 5 15 27 16 6 17 26 18 7 19 1 20 3 21 18 23 19 25 20 26
REMARK SMILES IDX 21 27 25 28 22 29 24 30 23 31
REMARK H PARENT 9 10 5 22 18 24
ROOT
ATOM      1  C   UNL     1      32.533   4.738  47.942  1.00  0.00     0.082 A 
ATOM      2  C   UNL     1      32.650   3.417  47.486  1.00  0.00     0.019 A 
ATOM      3  C   UNL     1      33.820   3.024  46.852  1.00  0.00     0.021 A 
ATOM      4  C   UNL     1      34.817   3.966  46.694  1.00  0.00     0.113 A 
ATOM      5  N   UNL     1      34.721   5.248  47.115  1.00  0.00    -0.239 NA
ATOM      6  C   UNL     1      33.582   5.645  47.731  1.00  0.00     0.139 A 
ENDROOT
BRANCH   1   7
ATOM      7  C   UNL     1      31.273   5.184  48.584  1.00  0.00     0.259 C 
ATOM      8  N   UNL     1      30.193   5.269  47.725  1.00  0.00    -0.322 N 
ATOM      9  O   UNL     1      31.300   5.435  49.784  1.00  0.00    -0.269 OA
ATOM     10  H   UNL     1      30.336   4.944  46.778  1.00  0.00     0.170 HD
BRANCH   8  11
ATOM     11  C   UNL     1      28.882   5.690  48.036  1.00  0.00     0.043 A 
ATOM     12  C   UNL     1      24.910   6.972  48.940  1.00  0.00     0.009 C 
ATOM     13  C   UNL     1      24.636   5.732  49.841  1.00  0.00     0.124 C 
ATOM     14  C   UNL     1      26.344   6.707  48.576  1.00  0.00    -0.017 A 
ATOM     15  N   UNL     1      25.571   4.667  49.437  1.00  0.00    -0.384 N 
ATOM     16  C   UNL     1      27.278   7.540  47.981  1.00  0.00     0.008 A 
ATOM     17  C   UNL     1      26.670   5.393  48.911  1.00  0.00     0.040 A 
ATOM     18  C   UNL     1      28.551   7.025  47.720  1.00  0.00     0.026 A 
ATOM     19  C   UNL     1      27.919   4.865  48.627  1.00  0.00     0.052 A 
ATOM     20  C   UNL     1      24.023   6.956  47.689  1.00  0.00     0.018 C 
ATOM     21  C   UNL     1      24.716   8.274  49.718  1.00  0.00     0.018 C 
ATOM     22  H   UNL     1      25.866   4.040  50.181  1.00  0.00     0.160 HD
ENDBRANCH   8  11
ENDBRANCH   1   7
BRANCH   6  23
ATOM     23  N   UNL     1      33.495   6.950  48.246  1.00  0.00    -0.365 N 
ATOM     24  H   UNL     1      32.846   6.941  49.037  1.00  0.00     0.162 HD
BRANCH  23  25
ATOM     25  C   UNL     1      33.207   8.019  47.304  1.00  0.00     0.150 C 
BRANCH  25  26
ATOM     26  C   UNL     1      32.023   8.834  47.762  1.00  0.00    -0.026 A 
ATOM     27  C   UNL     1      31.604   8.808  49.094  1.00  0.00     0.025 A 
ATOM     28  C   UNL     1      31.309   9.628  46.859  1.00  0.00     0.025 A 
ATOM     29  C   UNL     1      30.510   9.575  49.464  1.00  0.00     0.111 A 
ATOM     30  C   UNL     1      30.228  10.360  47.326  1.00  0.00     0.111 A 
ATOM     31  N   UNL     1      29.815  10.359  48.612  1.00  0.00    -0.265 NA
ENDBRANCH  25  26
ENDBRANCH  23  25
ENDBRANCH   6  23
TORSDOF 5
ENDMDL
MODEL 15
REMARK minimizedAffinity -8.09552574
REMARK minimizedRMSD -1
REMARK SMILES CC1(C)CNc2cc(NC(=O)c3cccnc3NCc3ccncc3)ccc21
REMARK SMILES IDX 12 1 13 2 14 3 15 4 16 5 17 6 10 7 9 8 11 9 8 11 2 12 4 13
REMARK SMILES IDX 28 14 5 15 27 16 6 17 26 18 7 19 1 20 3 21 18 23 19 25 20 26
REMARK SMILES IDX 21 27 25 28 22 29 24 30 23 31
REMARK H PARENT 9 10 5 22 18 24
ROOT
ATOM      1  C   UNL     1      25.037   1.376  52.606  1.00  0.00     0.082 A 
ATOM      2  C   UNL     1      25.546   0.249  53.267  1.00  0.00     0.019 A 
ATOM      3  C   UNL     1      26.918   0.048  53.299  1.00  0.00     0.021 A 
ATOM      4  C   UNL     1      27.722   0.975  52.664  1.00  0.00     0.113 A 
ATOM      5  N   UNL     1      27.252   2.063  52.012  1.00  0.00    -0.239 NA
ATOM      6  C   UNL     1      25.914   2.267  51.970  1.00  0.00     0.139 A 
ENDROOT
BRANCH   1   7
ATOM      7  C   UNL     1      23.571   1.582  52.528  1.00  0.00     0.259 C 
ATOM      8  N   UNL     1      22.860   0.474  52.107  1.00  0.00    -0.322 N 
ATOM      9  O   UNL     1      23.131   2.686  52.830  1.00  0.00    -0.269 OA
ATOM     10  H   UNL     1      23.383  -0.383  51.978  1.00  0.00     0.170 HD
BRANCH   8  11
ATOM     11  C   UNL     1      21.466   0.375  51.908  1.00  0.00     0.043 A 
ATOM     12  C   UNL     1      17.242   0.099  51.337  1.00  0.00     0.009 C 
ATOM     13  C   UNL     1      17.364   0.305  49.799  1.00  0.00     0.124 C 
ATOM     14  C   UNL     1      18.700   0.102  51.707  1.00  0.00    -0.017 A 
ATOM     15  N   UNL     1      18.643   0.984  49.535  1.00  0.00    -0.384 N 
ATOM     16  C   UNL     1      19.316  -0.266  52.891  1.00  0.00     0.008 A 
ATOM     17  C   UNL     1      19.447   0.584  50.633  1.00  0.00     0.040 A 
ATOM     18  C   UNL     1      20.705  -0.133  52.983  1.00  0.00     0.026 A 
ATOM     19  C   UNL     1      20.820   0.749  50.726  1.00  0.00     0.052 A 
ATOM     20  C   UNL     1      16.514   1.275  51.999  1.00  0.00     0.018 C 
ATOM     21  C   UNL     1      16.540  -1.220  51.665  1.00  0.00     0.018 C 
ATOM     22  H   UNL     1      19.087   0.752  48.650  1.00  0.00     0.160 HD
ENDBRANCH   8  11
ENDBRANCH   1   7
BRANCH   6  23
ATOM     23  N   UNL     1      25.413   3.432  51.365  1.00  0.00    -0.365 N 
ATOM     24  H   UNL     1      24.552   3.701  51.849  1.00  0.00     0.162 HD
BRANCH  23  25
ATOM     25  C   UNL     1      25.255   3.417  49.920  1.00  0.00     0.150 C 
BRANCH  25  26
ATOM     26  C   UNL     1      25.999   4.565  49.285  1.00  0.00    -0.026 A 
ATOM     27  C   UNL     1      25.348   5.763  48.982  1.00  0.00     0.025 A 
ATOM     28  C   UNL     1      27.358   4.454  48.975  1.00  0.00     0.025 A 
ATOM     29  C   UNL     1      26.075   6.789  48.398  1.00  0.00     0.111 A 
ATOM     30  C   UNL     1      27.998   5.536  48.392  1.00  0.00     0.111 A 
ATOM     31  N   UNL     1      27.390   6.707  48.103  1.00  0.00    -0.265 NA
ENDBRANCH  25  26
ENDBRANCH  23  25
ENDBRANCH   6  23
TORSDOF 5
ENDMDL
MODEL 16
REMARK minimizedAffinity -8.03384018
REMARK minimizedRMSD -1
REMARK SMILES CC1(C)CNc2cc(NC(=O)c3cccnc3NCc3ccncc3)ccc21
REMARK SMILES IDX 12 1 13 2 14 3 15 4 16 5 17 6 10 7 9 8 11 9 8 11 2 12 4 13
REMARK SMILES IDX 28 14 5 15 27 16 6 17 26 18 7 19 1 20 3 21 18 23 19 25 20 26
REMARK SMILES IDX 21 27 25 28 22 29 24 30 23 31
REMARK H PARENT 9 10 5 22 18 24
ROOT
ATOM      1  C   UNL     1      25.996   5.871  48.803  1.00  0.00     0.082 A 
ATOM      2  C   UNL     1      24.646   6.065  48.477  1.00  0.00     0.019 A 
ATOM      3  C   UNL     1      24.245   7.292  47.968  1.00  0.00     0.021 A 
ATOM      4  C   UNL     1      25.205   8.273  47.815  1.00  0.00     0.113 A 
ATOM      5  N   UNL     1      26.509   8.112  48.134  1.00  0.00    -0.239 NA
ATOM      6  C   UNL     1      26.913   6.920  48.636  1.00  0.00     0.139 A 
ENDROOT
BRANCH   1   7
ATOM      7  C   UNL     1      26.432   4.580  49.386  1.00  0.00     0.259 C 
ATOM      8  N   UNL     1      25.667   4.148  50.454  1.00  0.00    -0.322 N 
ATOM      9  O   UNL     1      27.407   4.027  48.888  1.00  0.00    -0.269 OA
ATOM     10  H   UNL     1      24.847   4.695  50.679  1.00  0.00     0.170 HD
BRANCH   8  11
ATOM     11  C   UNL     1      25.855   2.980  51.226  1.00  0.00     0.043 A 
ATOM     12  C   UNL     1      26.413  -0.572  53.530  1.00  0.00     0.009 C 
ATOM     13  C   UNL     1      27.753  -0.058  54.132  1.00  0.00     0.124 C 
ATOM     14  C   UNL     1      26.027   0.630  52.712  1.00  0.00    -0.017 A 
ATOM     15  N   UNL     1      28.291   0.969  53.224  1.00  0.00    -0.384 N 
ATOM     16  C   UNL     1      24.824   0.938  52.100  1.00  0.00     0.008 A 
ATOM     17  C   UNL     1      27.125   1.482  52.601  1.00  0.00     0.040 A 
ATOM     18  C   UNL     1      24.743   2.122  51.362  1.00  0.00     0.026 A 
ATOM     19  C   UNL     1      27.063   2.643  51.844  1.00  0.00     0.052 A 
ATOM     20  C   UNL     1      26.641  -1.790  52.626  1.00  0.00     0.018 C 
ATOM     21  C   UNL     1      25.403  -0.901  54.630  1.00  0.00     0.018 C 
ATOM     22  H   UNL     1      28.827   1.710  53.670  1.00  0.00     0.160 HD
ENDBRANCH   8  11
ENDBRANCH   1   7
BRANCH   6  23
ATOM     23  N   UNL     1      28.277   6.708  48.898  1.00  0.00    -0.365 N 
ATOM     24  H   UNL     1      28.530   7.241  49.734  1.00  0.00     0.162 HD
BRANCH  23  25
ATOM     25  C   UNL     1      29.207   6.920  47.802  1.00  0.00     0.150 C 
BRANCH  25  26
ATOM     26  C   UNL     1      29.877   8.266  47.918  1.00  0.00    -0.026 A 
ATOM     27  C   UNL     1      30.190   8.808  49.166  1.00  0.00     0.025 A 
ATOM     28  C   UNL     1      30.192   9.010  46.776  1.00  0.00     0.025 A 
ATOM     29  C   UNL     1      30.805  10.050  49.219  1.00  0.00     0.111 A 
ATOM     30  C   UNL     1      30.807  10.242  46.932  1.00  0.00     0.111 A 
ATOM     31  N   UNL     1      31.129  10.778  48.129  1.00  0.00    -0.265 NA
ENDBRANCH  25  26
ENDBRANCH  23  25
ENDBRANCH   6  23
TORSDOF 5
ENDMDL
MODEL 17
REMARK minimizedAffinity -8.02824593
REMARK minimizedRMSD -1
REMARK SMILES CC1(C)CNc2cc(NC(=O)c3cccnc3NCc3ccncc3)ccc21
REMARK SMILES IDX 12 1 13 2 14 3 15 4 16 5 17 6 10 7 9 8 11 9 8 11 2 12 4 13
REMARK SMILES IDX 28 14 5 15 27 16 6 17 26 18 7 19 1 20 3 21 18 23 19 25 20 26
REMARK SMILES IDX 21 27 25 28 22 29 24 30 23 31
REMARK H PARENT 9 10 5 22 18 24
ROOT
ATOM      1  C   UNL     1      24.921   6.248  48.783  1.00  0.00     0.082 A 
ATOM      2  C   UNL     1      23.706   6.452  48.115  1.00  0.00     0.019 A 
ATOM      3  C   UNL     1      23.667   7.324  47.036  1.00  0.00     0.021 A 
ATOM      4  C   UNL     1      24.840   7.958  46.675  1.00  0.00     0.113 A 
ATOM      5  N   UNL     1      26.020   7.785  47.312  1.00  0.00    -0.239 NA
ATOM      6  C   UNL     1      26.070   6.941  48.370  1.00  0.00     0.139 A 
ENDROOT
BRANCH   1   7
ATOM      7  C   UNL     1      24.969   5.352  49.962  1.00  0.00     0.259 C 
ATOM      8  N   UNL     1      25.266   4.034  49.668  1.00  0.00    -0.322 N 
ATOM      9  O   UNL     1      24.743   5.843  51.063  1.00  0.00    -0.269 OA
ATOM     10  H   UNL     1      25.504   3.824  48.707  1.00  0.00     0.170 HD
BRANCH   8  11
ATOM     11  C   UNL     1      25.351   2.952  50.571  1.00  0.00     0.043 A 
ATOM     12  C   UNL     1      25.634  -0.300  53.324  1.00  0.00     0.009 C 
ATOM     13  C   UNL     1      24.096  -0.538  53.314  1.00  0.00     0.124 C 
ATOM     14  C   UNL     1      25.724   0.812  52.316  1.00  0.00    -0.017 A 
ATOM     15  N   UNL     1      23.450   0.714  52.882  1.00  0.00    -0.384 N 
ATOM     16  C   UNL     1      26.831   1.343  51.676  1.00  0.00     0.008 A 
ATOM     17  C   UNL     1      24.448   1.326  52.083  1.00  0.00     0.040 A 
ATOM     18  C   UNL     1      26.635   2.412  50.796  1.00  0.00     0.026 A 
ATOM     19  C   UNL     1      24.250   2.406  51.237  1.00  0.00     0.052 A 
ATOM     20  C   UNL     1      26.114   0.177  54.700  1.00  0.00     0.018 C 
ATOM     21  C   UNL     1      26.391  -1.560  52.899  1.00  0.00     0.018 C 
ATOM     22  H   UNL     1      22.582   0.600  52.364  1.00  0.00     0.160 HD
ENDBRANCH   8  11
ENDBRANCH   1   7
BRANCH   6  23
ATOM     23  N   UNL     1      27.303   6.688  48.994  1.00  0.00    -0.365 N 
ATOM     24  H   UNL     1      27.759   7.585  49.181  1.00  0.00     0.162 HD
BRANCH  23  25
ATOM     25  C   UNL     1      28.193   5.737  48.350  1.00  0.00     0.150 C 
BRANCH  25  26
ATOM     26  C   UNL     1      29.585   6.303  48.221  1.00  0.00    -0.026 A 
ATOM     27  C   UNL     1      30.677   5.474  47.957  1.00  0.00     0.025 A 
ATOM     28  C   UNL     1      29.817   7.674  48.376  1.00  0.00     0.025 A 
ATOM     29  C   UNL     1      31.936   6.043  47.849  1.00  0.00     0.111 A 
ATOM     30  C   UNL     1      31.113   8.148  48.249  1.00  0.00     0.111 A 
ATOM     31  N   UNL     1      32.181   7.365  47.981  1.00  0.00    -0.265 NA
ENDBRANCH  25  26
ENDBRANCH  23  25
ENDBRANCH   6  23
TORSDOF 5
ENDMDL
MODEL 18
REMARK minimizedAffinity -7.95938063
REMARK minimizedRMSD -1
REMARK SMILES CC1(C)CNc2cc(NC(=O)c3cccnc3NCc3ccncc3)ccc21
REMARK SMILES IDX 12 1 13 2 14 3 15 4 16 5 17 6 10 7 9 8 11 9 8 11 2 12 4 13
REMARK SMILES IDX 28 14 5 15 27 16 6 17 26 18 7 19 1 20 3 21 18 23 19 25 20 26
REMARK SMILES IDX 21 27 25 28 22 29 24 30 23 31
REMARK H PARENT 9 10 5 22 18 24
ROOT
ATOM      1  C   UNL     1      30.699   6.085  48.238  1.00  0.00     0.082 A 
ATOM      2  C   UNL     1      31.451   5.075  47.621  1.00  0.00     0.019 A 
ATOM      3  C   UNL     1      32.832   5.087  47.750  1.00  0.00     0.021 A 
ATOM      4  C   UNL     1      33.404   6.110  48.482  1.00  0.00     0.113 A 
ATOM      5  N   UNL     1      32.699   7.100  49.076  1.00  0.00    -0.239 NA
ATOM      6  C   UNL     1      31.351   7.102  48.953  1.00  0.00     0.139 A 
ENDROOT
BRANCH   1   7
ATOM      7  C   UNL     1      29.227   6.108  48.075  1.00  0.00     0.259 C 
ATOM      8  N   UNL     1      28.542   5.279  48.944  1.00  0.00    -0.322 N 
ATOM      9  O   UNL     1      28.758   6.835  47.205  1.00  0.00    -0.269 OA
ATOM     10  H   UNL     1      29.089   4.810  49.654  1.00  0.00     0.170 HD
BRANCH   8  11
ATOM     11  C   UNL     1      27.147   5.067  49.008  1.00  0.00     0.043 A 
ATOM     12  C   UNL     1      22.933   4.416  49.236  1.00  0.00     0.009 C 
ATOM     13  C   UNL     1      22.614   5.735  48.473  1.00  0.00     0.124 C 
ATOM     14  C   UNL     1      24.435   4.453  49.186  1.00  0.00    -0.017 A 
ATOM     15  N   UNL     1      23.775   6.630  48.616  1.00  0.00    -0.384 N 
ATOM     16  C   UNL     1      25.358   3.462  49.478  1.00  0.00     0.008 A 
ATOM     17  C   UNL     1      24.852   5.726  48.797  1.00  0.00     0.040 A 
ATOM     18  C   UNL     1      26.717   3.776  49.379  1.00  0.00     0.026 A 
ATOM     19  C   UNL     1      26.197   6.054  48.728  1.00  0.00     0.052 A 
ATOM     20  C   UNL     1      22.439   4.481  50.686  1.00  0.00     0.018 C 
ATOM     21  C   UNL     1      22.336   3.204  48.519  1.00  0.00     0.018 C 
ATOM     22  H   UNL     1      23.945   7.254  47.831  1.00  0.00     0.160 HD
ENDBRANCH   8  11
ENDBRANCH   1   7
BRANCH   6  23
ATOM     23  N   UNL     1      30.597   8.077  49.628  1.00  0.00    -0.365 N 
ATOM     24  H   UNL     1      29.672   7.687  49.829  1.00  0.00     0.162 HD
BRANCH  23  25
ATOM     25  C   UNL     1      30.523   9.397  49.025  1.00  0.00     0.150 C 
BRANCH  25  26
ATOM     26  C   UNL     1      29.103   9.905  49.014  1.00  0.00    -0.026 A 
ATOM     27  C   UNL     1      28.777  11.111  48.390  1.00  0.00     0.025 A 
ATOM     28  C   UNL     1      28.080   9.186  49.640  1.00  0.00     0.025 A 
ATOM     29  C   UNL     1      27.457  11.536  48.409  1.00  0.00     0.111 A 
ATOM     30  C   UNL     1      26.791   9.693  49.604  1.00  0.00     0.111 A 
ATOM     31  N   UNL     1      26.452  10.850  48.994  1.00  0.00    -0.265 NA
ENDBRANCH  25  26
ENDBRANCH  23  25
ENDBRANCH   6  23
TORSDOF 5
ENDMDL
MODEL 19
REMARK minimizedAffinity -7.89142752
REMARK minimizedRMSD -1
REMARK SMILES CC1(C)CNc2cc(NC(=O)c3cccnc3NCc3ccncc3)ccc21
REMARK SMILES IDX 12 1 13 2 14 3 15 4 16 5 17 6 10 7 9 8 11 9 8 11 2 12 4 13
REMARK SMILES IDX 28 14 5 15 27 16 6 17 26 18 7 19 1 20 3 21 18 23 19 25 20 26
REMARK SMILES IDX 21 27 25 28 22 29 24 30 23 31
REMARK H PARENT 9 10 5 22 18 24
ROOT
ATOM      1  C   UNL     1      25.356   1.312  52.164  1.00  0.00     0.082 A 
ATOM      2  C   UNL     1      26.666   0.856  51.962  1.00  0.00     0.019 A 
ATOM      3  C   UNL     1      27.030  -0.389  52.453  1.00  0.00     0.021 A 
ATOM      4  C   UNL     1      26.074  -1.121  53.131  1.00  0.00     0.113 A 
ATOM      5  N   UNL     1      24.809  -0.696  53.348  1.00  0.00    -0.239 NA
ATOM      6  C   UNL     1      24.443   0.520  52.877  1.00  0.00     0.139 A 
ENDROOT
BRANCH   1   7
ATOM      7  C   UNL     1      24.964   2.658  51.682  1.00  0.00     0.259 C 
ATOM      8  N   UNL     1      25.301   2.913  50.365  1.00  0.00    -0.322 N 
ATOM      9  O   UNL     1      24.396   3.406  52.470  1.00  0.00    -0.269 OA
ATOM     10  H   UNL     1      25.697   2.146  49.838  1.00  0.00     0.170 HD
BRANCH   8  11
ATOM     11  C   UNL     1      25.087   4.107  49.642  1.00  0.00     0.043 A 
ATOM     12  C   UNL     1      24.410   7.726  47.479  1.00  0.00     0.009 C 
ATOM     13  C   UNL     1      25.934   8.003  47.321  1.00  0.00     0.124 C 
ATOM     14  C   UNL     1      24.466   6.402  48.188  1.00  0.00    -0.017 A 
ATOM     15  N   UNL     1      26.637   7.267  48.386  1.00  0.00    -0.384 N 
ATOM     16  C   UNL     1      23.462   5.478  48.426  1.00  0.00     0.008 A 
ATOM     17  C   UNL     1      25.763   6.183  48.652  1.00  0.00     0.040 A 
ATOM     18  C   UNL     1      23.782   4.326  49.150  1.00  0.00     0.026 A 
ATOM     19  C   UNL     1      26.082   5.059  49.398  1.00  0.00     0.052 A 
ATOM     20  C   UNL     1      23.742   8.786  48.364  1.00  0.00     0.018 C 
ATOM     21  C   UNL     1      23.718   7.651  46.117  1.00  0.00     0.018 C 
ATOM     22  H   UNL     1      27.570   6.938  48.147  1.00  0.00     0.160 HD
ENDBRANCH   8  11
ENDBRANCH   1   7
BRANCH   6  23
ATOM     23  N   UNL     1      23.111   0.945  53.024  1.00  0.00    -0.365 N 
ATOM     24  H   UNL     1      22.887   0.960  54.023  1.00  0.00     0.162 HD
BRANCH  23  25
ATOM     25  C   UNL     1      22.102   0.254  52.239  1.00  0.00     0.150 C 
BRANCH  25  26
ATOM     26  C   UNL     1      21.526   1.164  51.183  1.00  0.00    -0.026 A 
ATOM     27  C   UNL     1      21.430   0.750  49.853  1.00  0.00     0.025 A 
ATOM     28  C   UNL     1      21.083   2.450  51.509  1.00  0.00     0.025 A 
ATOM     29  C   UNL     1      20.893   1.623  48.920  1.00  0.00     0.111 A 
ATOM     30  C   UNL     1      20.561   3.249  50.505  1.00  0.00     0.111 A 
ATOM     31  N   UNL     1      20.448   2.863  49.216  1.00  0.00    -0.265 NA
ENDBRANCH  25  26
ENDBRANCH  23  25
ENDBRANCH   6  23
TORSDOF 5
ENDMDL
MODEL 20
REMARK minimizedAffinity -7.8409338
REMARK minimizedRMSD -1
REMARK SMILES CC1(C)CNc2cc(NC(=O)c3cccnc3NCc3ccncc3)ccc21
REMARK SMILES IDX 12 1 13 2 14 3 15 4 16 5 17 6 10 7 9 8 11 9 8 11 2 12 4 13
REMARK SMILES IDX 28 14 5 15 27 16 6 17 26 18 7 19 1 20 3 21 18 23 19 25 20 26
REMARK SMILES IDX 21 27 25 28 22 29 24 30 23 31
REMARK H PARENT 9 10 5 22 18 24
ROOT
ATOM      1  C   UNL     1      22.348   0.596  53.179  1.00  0.00     0.082 A 
ATOM      2  C   UNL     1      21.300  -0.177  53.696  1.00  0.00     0.019 A 
ATOM      3  C   UNL     1      21.591  -1.199  54.588  1.00  0.00     0.021 A 
ATOM      4  C   UNL     1      22.916  -1.410  54.918  1.00  0.00     0.113 A 
ATOM      5  N   UNL     1      23.944  -0.685  54.422  1.00  0.00    -0.239 NA
ATOM      6  C   UNL     1      23.673   0.313  53.547  1.00  0.00     0.139 A 
ENDROOT
BRANCH   1   7
ATOM      7  C   UNL     1      22.056   1.664  52.194  1.00  0.00     0.259 C 
ATOM      8  N   UNL     1      21.947   1.223  50.888  1.00  0.00    -0.322 N 
ATOM      9  O   UNL     1      21.945   2.812  52.610  1.00  0.00    -0.269 OA
ATOM     10  H   UNL     1      21.988   0.223  50.739  1.00  0.00     0.170 HD
BRANCH   8  11
ATOM     11  C   UNL     1      21.706   2.004  49.737  1.00  0.00     0.043 A 
ATOM     12  C   UNL     1      21.008   4.352  46.238  1.00  0.00     0.009 C 
ATOM     13  C   UNL     1      19.478   4.066  46.263  1.00  0.00     0.124 C 
ATOM     14  C   UNL     1      21.420   3.627  47.489  1.00  0.00    -0.017 A 
ATOM     15  N   UNL     1      19.264   2.827  47.030  1.00  0.00    -0.384 N 
ATOM     16  C   UNL     1      22.615   3.670  48.188  1.00  0.00     0.008 A 
ATOM     17  C   UNL     1      20.376   2.801  47.908  1.00  0.00     0.040 A 
ATOM     18  C   UNL     1      22.748   2.859  49.319  1.00  0.00     0.026 A 
ATOM     19  C   UNL     1      20.512   1.970  49.009  1.00  0.00     0.052 A 
ATOM     20  C   UNL     1      21.670   3.723  45.006  1.00  0.00     0.018 C 
ATOM     21  C   UNL     1      21.291   5.854  46.291  1.00  0.00     0.018 C 
ATOM     22  H   UNL     1      18.387   2.778  47.544  1.00  0.00     0.160 HD
ENDBRANCH   8  11
ENDBRANCH   1   7
BRANCH   6  23
ATOM     23  N   UNL     1      24.719   1.127  53.083  1.00  0.00    -0.365 N 
ATOM     24  H   UNL     1      24.316   2.004  52.739  1.00  0.00     0.162 HD
BRANCH  23  25
ATOM     25  C   UNL     1      25.652   0.538  52.138  1.00  0.00     0.150 C 
BRANCH  25  26
ATOM     26  C   UNL     1      27.027   0.415  52.745  1.00  0.00    -0.026 A 
ATOM     27  C   UNL     1      27.627  -0.834  52.919  1.00  0.00     0.025 A 
ATOM     28  C   UNL     1      27.732   1.550  53.159  1.00  0.00     0.025 A 
ATOM     29  C   UNL     1      28.892  -0.894  53.483  1.00  0.00     0.111 A 
ATOM     30  C   UNL     1      28.993   1.387  53.711  1.00  0.00     0.111 A 
ATOM     31  N   UNL     1      29.595   0.189  53.876  1.00  0.00    -0.265 NA
ENDBRANCH  25  26
ENDBRANCH  23  25
ENDBRANCH   6  23
TORSDOF 5
ENDMDL
