MODEL 1
REMARK minimizedAffinity -9.04084015
REMARK minimizedRMSD -1
REMARK SMILES C=CC(=O)Nc1cc(Nc2nccc(-c3cn(C)c4ccccc34)n2)c(OC)cc1N(C)CCN(C)C
REMARK SMILES IDX 6 1 7 2 8 3 26 4 29 5 30 6 5 7 3 8 4 9 2 11 1 12 31 13 32 14
REMARK SMILES IDX 33 15 34 16 35 17 36 18 37 19 9 20 10 22 11 23 25 24 12 25
REMARK SMILES IDX 14 26 13 27 15 28 16 29 24 30 17 31 23 32 19 33 22 34 20 35
REMARK SMILES IDX 21 36 18 37 27 38 28 39
REMARK H PARENT 5 10 9 21
ROOT
ATOM      1  C   UNL     1      28.889   6.069  48.148  1.00  0.00     0.067 A 
ATOM      2  C   UNL     1      28.063   4.979  48.498  1.00  0.00     0.058 A 
ATOM      3  C   UNL     1      26.768   5.169  48.980  1.00  0.00     0.086 A 
ATOM      4  C   UNL     1      26.329   6.491  49.147  1.00  0.00     0.144 A 
ATOM      5  C   UNL     1      27.131   7.586  48.827  1.00  0.00     0.076 A 
ATOM      6  C   UNL     1      28.443   7.398  48.357  1.00  0.00     0.064 A 
ENDROOT
BRANCH   1   7
ATOM      7  N   UNL     1      30.167   5.729  47.639  1.00  0.00    -0.321 N 
ATOM      8  C   UNL     1      31.285   5.380  48.374  1.00  0.00     0.247 C 
ATOM      9  O   UNL     1      31.462   5.457  49.584  1.00  0.00    -0.270 OA
ATOM     10  H   UNL     1      30.321   5.970  46.668  1.00  0.00     0.170 HD
BRANCH   8  11
ATOM     11  C   UNL     1      32.395   4.938  47.472  1.00  0.00     0.064 C 
ATOM     12  C   UNL     1      32.277   3.840  46.716  1.00  0.00     0.014 C 
ENDBRANCH   8  11
ENDBRANCH   1   7
BRANCH   6  13
ATOM     13  N   UNL     1      29.338   8.490  48.259  1.00  0.00    -0.372 N 
ATOM     14  C   UNL     1      29.515   9.032  46.904  1.00  0.00     0.143 C 
BRANCH  13  15
ATOM     15  C   UNL     1      29.098   9.482  49.329  1.00  0.00     0.131 C 
BRANCH  15  16
ATOM     16  C   UNL     1      29.170  10.927  48.784  1.00  0.00     0.105 C 
BRANCH  16  17
ATOM     17  N   UNL     1      27.980  11.748  49.117  1.00  0.00    -0.308 NA
ATOM     18  C   UNL     1      26.811  11.248  48.378  1.00  0.00     0.105 C 
ATOM     19  C   UNL     1      28.198  13.163  48.790  1.00  0.00     0.105 C 
ENDBRANCH  16  17
ENDBRANCH  15  16
ENDBRANCH  13  15
ENDBRANCH   6  13
BRANCH   3  20
ATOM     20  N   UNL     1      25.916   4.109  49.322  1.00  0.00    -0.321 N 
ATOM     21  H   UNL     1      24.966   4.212  48.989  1.00  0.00     0.170 HD
BRANCH  20  22
ATOM     22  C   UNL     1      25.927   3.255  50.425  1.00  0.00     0.227 A 
ATOM     23  N   UNL     1      27.071   2.903  51.036  1.00  0.00    -0.221 NA
ATOM     24  N   UNL     1      24.713   2.877  50.850  1.00  0.00    -0.213 NA
ATOM     25  C   UNL     1      26.963   2.120  52.126  1.00  0.00     0.117 A 
ATOM     26  C   UNL     1      24.638   2.086  51.945  1.00  0.00     0.078 A 
ATOM     27  C   UNL     1      25.762   1.673  52.621  1.00  0.00     0.049 A 
BRANCH  26  28
ATOM     28  C   UNL     1      23.282   1.708  52.348  1.00  0.00     0.026 A 
ATOM     29  C   UNL     1      22.185   2.455  51.956  1.00  0.00     0.096 A 
ATOM     30  C   UNL     1      22.770   0.632  53.162  1.00  0.00     0.009 A 
ATOM     31  N   UNL     1      21.055   1.873  52.448  1.00  0.00    -0.350 N 
ATOM     32  C   UNL     1      23.342  -0.436  53.899  1.00  0.00     0.011 A 
ATOM     33  C   UNL     1      21.372   0.754  53.183  1.00  0.00     0.048 A 
ATOM     34  C   UNL     1      22.522  -1.347  54.580  1.00  0.00     0.001 A 
ATOM     35  C   UNL     1      20.540  -0.150  53.868  1.00  0.00     0.027 A 
ATOM     36  C   UNL     1      21.139  -1.208  54.557  1.00  0.00     0.002 A 
ATOM     37  C   UNL     1      19.717   2.387  52.246  1.00  0.00     0.149 C 
ENDBRANCH  26  28
ENDBRANCH  20  22
ENDBRANCH   3  20
BRANCH   4  38
ATOM     38  O   UNL     1      25.073   6.711  49.656  1.00  0.00    -0.494 OA
ATOM     39  C   UNL     1      24.900   8.101  49.959  1.00  0.00     0.278 C 
ENDBRANCH   4  38
TORSDOF 10
ENDMDL
MODEL 2
REMARK minimizedAffinity -8.77449989
REMARK minimizedRMSD -1
REMARK SMILES C=CC(=O)Nc1cc(Nc2nccc(-c3cn(C)c4ccccc34)n2)c(OC)cc1N(C)CCN(C)C
REMARK SMILES IDX 6 1 7 2 8 3 26 4 29 5 30 6 5 7 3 8 4 9 2 11 1 12 31 13 32 14
REMARK SMILES IDX 33 15 34 16 35 17 36 18 37 19 9 20 10 22 11 23 25 24 12 25
REMARK SMILES IDX 14 26 13 27 15 28 16 29 24 30 17 31 23 32 19 33 22 34 20 35
REMARK SMILES IDX 21 36 18 37 27 38 28 39
REMARK H PARENT 5 10 9 21
ROOT
ATOM      1  C   UNL     1      26.390   1.188  52.153  1.00  0.00     0.067 A 
ATOM      2  C   UNL     1      26.471   2.136  51.110  1.00  0.00     0.058 A 
ATOM      3  C   UNL     1      25.335   2.777  50.615  1.00  0.00     0.086 A 
ATOM      4  C   UNL     1      24.098   2.410  51.163  1.00  0.00     0.144 A 
ATOM      5  C   UNL     1      23.987   1.463  52.181  1.00  0.00     0.076 A 
ATOM      6  C   UNL     1      25.128   0.803  52.670  1.00  0.00     0.064 A 
ENDROOT
BRANCH   1   7
ATOM      7  N   UNL     1      27.625   0.642  52.581  1.00  0.00    -0.321 N 
ATOM      8  C   UNL     1      28.521   1.214  53.467  1.00  0.00     0.247 C 
ATOM      9  O   UNL     1      28.530   2.352  53.920  1.00  0.00    -0.270 OA
ATOM     10  H   UNL     1      27.970  -0.132  52.026  1.00  0.00     0.170 HD
BRANCH   8  11
ATOM     11  C   UNL     1      29.630   0.261  53.788  1.00  0.00     0.064 C 
ATOM     12  C   UNL     1      29.549  -1.032  53.454  1.00  0.00     0.014 C 
ENDBRANCH   8  11
ENDBRANCH   1   7
BRANCH   6  13
ATOM     13  N   UNL     1      25.003  -0.319  53.524  1.00  0.00    -0.372 N 
ATOM     14  C   UNL     1      25.608  -0.163  54.854  1.00  0.00     0.143 C 
BRANCH  13  15
ATOM     15  C   UNL     1      23.629  -0.867  53.496  1.00  0.00     0.131 C 
BRANCH  15  16
ATOM     16  C   UNL     1      23.072  -1.064  54.924  1.00  0.00     0.105 C 
BRANCH  16  17
ATOM     17  N   UNL     1      21.597  -0.933  55.011  1.00  0.00    -0.308 NA
ATOM     18  C   UNL     1      20.958  -2.035  54.276  1.00  0.00     0.105 C 
ATOM     19  C   UNL     1      21.141   0.351  54.463  1.00  0.00     0.105 C 
ENDBRANCH  16  17
ENDBRANCH  15  16
ENDBRANCH  13  15
ENDBRANCH   6  13
BRANCH   3  20
ATOM     20  N   UNL     1      25.382   3.734  49.592  1.00  0.00    -0.321 N 
ATOM     21  H   UNL     1      25.687   3.374  48.697  1.00  0.00     0.170 HD
BRANCH  20  22
ATOM     22  C   UNL     1      25.625   5.107  49.642  1.00  0.00     0.227 A 
ATOM     23  N   UNL     1      24.941   5.915  50.469  1.00  0.00    -0.221 NA
ATOM     24  N   UNL     1      26.626   5.526  48.855  1.00  0.00    -0.213 NA
ATOM     25  C   UNL     1      25.295   7.215  50.480  1.00  0.00     0.117 A 
ATOM     26  C   UNL     1      26.954   6.838  48.885  1.00  0.00     0.078 A 
ATOM     27  C   UNL     1      26.296   7.734  49.694  1.00  0.00     0.049 A 
BRANCH  26  28
ATOM     28  C   UNL     1      28.050   7.227  47.995  1.00  0.00     0.026 A 
ATOM     29  C   UNL     1      27.966   8.365  47.212  1.00  0.00     0.096 A 
ATOM     30  C   UNL     1      29.327   6.624  47.699  1.00  0.00     0.009 A 
ATOM     31  N   UNL     1      29.122   8.500  46.503  1.00  0.00    -0.350 N 
ATOM     32  C   UNL     1      30.006   5.448  48.104  1.00  0.00     0.011 A 
ATOM     33  C   UNL     1      29.980   7.461  46.779  1.00  0.00     0.048 A 
ATOM     34  C   UNL     1      31.294   5.171  47.625  1.00  0.00     0.001 A 
ATOM     35  C   UNL     1      31.269   7.189  46.287  1.00  0.00     0.027 A 
ATOM     36  C   UNL     1      31.919   6.036  46.734  1.00  0.00     0.002 A 
ATOM     37  C   UNL     1      29.387   9.573  45.568  1.00  0.00     0.149 C 
ENDBRANCH  26  28
ENDBRANCH  20  22
ENDBRANCH   3  20
BRANCH   4  38
ATOM     38  O   UNL     1      22.957   2.995  50.670  1.00  0.00    -0.494 OA
ATOM     39  C   UNL     1      22.018   1.987  50.273  1.00  0.00     0.278 C 
ENDBRANCH   4  38
TORSDOF 10
ENDMDL
MODEL 3
REMARK minimizedAffinity -8.76771069
REMARK minimizedRMSD -1
REMARK SMILES C=CC(=O)Nc1cc(Nc2nccc(-c3cn(C)c4ccccc34)n2)c(OC)cc1N(C)CCN(C)C
REMARK SMILES IDX 6 1 7 2 8 3 26 4 29 5 30 6 5 7 3 8 4 9 2 11 1 12 31 13 32 14
REMARK SMILES IDX 33 15 34 16 35 17 36 18 37 19 9 20 10 22 11 23 25 24 12 25
REMARK SMILES IDX 14 26 13 27 15 28 16 29 24 30 17 31 23 32 19 33 22 34 20 35
REMARK SMILES IDX 21 36 18 37 27 38 28 39
REMARK H PARENT 5 10 9 21
ROOT
ATOM      1  C   UNL     1      25.931   3.243  50.513  1.00  0.00     0.067 A 
ATOM      2  C   UNL     1      26.778   3.859  49.567  1.00  0.00     0.058 A 
ATOM      3  C   UNL     1      26.543   5.157  49.113  1.00  0.00     0.086 A 
ATOM      4  C   UNL     1      25.403   5.814  49.598  1.00  0.00     0.144 A 
ATOM      5  C   UNL     1      24.539   5.221  50.518  1.00  0.00     0.076 A 
ATOM      6  C   UNL     1      24.763   3.908  50.965  1.00  0.00     0.064 A 
ENDROOT
BRANCH   1   7
ATOM      7  N   UNL     1      26.307   1.937  50.912  1.00  0.00    -0.321 N 
ATOM      8  C   UNL     1      26.958   1.583  52.080  1.00  0.00     0.247 C 
ATOM      9  O   UNL     1      27.490   2.308  52.911  1.00  0.00    -0.270 OA
ATOM     10  H   UNL     1      26.282   1.238  50.179  1.00  0.00     0.170 HD
BRANCH   8  11
ATOM     11  C   UNL     1      27.036   0.093  52.212  1.00  0.00     0.064 C 
ATOM     12  C   UNL     1      27.885  -0.482  53.072  1.00  0.00     0.014 C 
ENDBRANCH   8  11
ENDBRANCH   1   7
BRANCH   6  13
ATOM     13  N   UNL     1      23.773   3.217  51.705  1.00  0.00    -0.372 N 
ATOM     14  C   UNL     1      23.923   3.285  53.165  1.00  0.00     0.143 C 
BRANCH  13  15
ATOM     15  C   UNL     1      22.418   3.491  51.178  1.00  0.00     0.131 C 
BRANCH  15  16
ATOM     16  C   UNL     1      21.513   4.130  52.255  1.00  0.00     0.105 C 
BRANCH  16  17
ATOM     17  N   UNL     1      20.211   3.439  52.424  1.00  0.00    -0.308 NA
ATOM     18  C   UNL     1      20.437   2.000  52.627  1.00  0.00     0.105 C 
ATOM     19  C   UNL     1      19.344   3.640  51.257  1.00  0.00     0.105 C 
ENDBRANCH  16  17
ENDBRANCH  15  16
ENDBRANCH  13  15
ENDBRANCH   6  13
BRANCH   3  20
ATOM     20  N   UNL     1      27.373   5.805  48.188  1.00  0.00    -0.321 N 
ATOM     21  H   UNL     1      27.494   5.307  47.315  1.00  0.00     0.170 HD
BRANCH  20  22
ATOM     22  C   UNL     1      28.458   6.661  48.382  1.00  0.00     0.227 A 
ATOM     23  N   UNL     1      28.288   7.954  48.706  1.00  0.00    -0.221 NA
ATOM     24  N   UNL     1      29.658   6.072  48.283  1.00  0.00    -0.213 NA
ATOM     25  C   UNL     1      29.403   8.677  48.928  1.00  0.00     0.117 A 
ATOM     26  C   UNL     1      30.759   6.827  48.507  1.00  0.00     0.078 A 
ATOM     27  C   UNL     1      30.672   8.160  48.832  1.00  0.00     0.049 A 
BRANCH  26  28
ATOM     28  C   UNL     1      32.035   6.121  48.375  1.00  0.00     0.026 A 
ATOM     29  C   UNL     1      33.208   6.669  48.864  1.00  0.00     0.096 A 
ATOM     30  C   UNL     1      32.396   4.861  47.774  1.00  0.00     0.009 A 
ATOM     31  N   UNL     1      34.233   5.802  48.630  1.00  0.00    -0.350 N 
ATOM     32  C   UNL     1      31.705   3.845  47.067  1.00  0.00     0.011 A 
ATOM     33  C   UNL     1      33.775   4.684  47.972  1.00  0.00     0.048 A 
ATOM     34  C   UNL     1      32.382   2.698  46.630  1.00  0.00     0.001 A 
ATOM     35  C   UNL     1      34.466   3.540  47.532  1.00  0.00     0.027 A 
ATOM     36  C   UNL     1      33.743   2.546  46.867  1.00  0.00     0.002 A 
ATOM     37  C   UNL     1      35.611   6.047  48.996  1.00  0.00     0.149 C 
ENDBRANCH  26  28
ENDBRANCH  20  22
ENDBRANCH   3  20
BRANCH   4  38
ATOM     38  O   UNL     1      25.124   7.079  49.141  1.00  0.00    -0.494 OA
ATOM     39  C   UNL     1      24.936   7.973  50.246  1.00  0.00     0.278 C 
ENDBRANCH   4  38
TORSDOF 10
ENDMDL
MODEL 4
REMARK minimizedAffinity -8.73458672
REMARK minimizedRMSD -1
REMARK SMILES C=CC(=O)Nc1cc(Nc2nccc(-c3cn(C)c4ccccc34)n2)c(OC)cc1N(C)CCN(C)C
REMARK SMILES IDX 6 1 7 2 8 3 26 4 29 5 30 6 5 7 3 8 4 9 2 11 1 12 31 13 32 14
REMARK SMILES IDX 33 15 34 16 35 17 36 18 37 19 9 20 10 22 11 23 25 24 12 25
REMARK SMILES IDX 14 26 13 27 15 28 16 29 24 30 17 31 23 32 19 33 22 34 20 35
REMARK SMILES IDX 21 36 18 37 27 38 28 39
REMARK H PARENT 5 10 9 21
ROOT
ATOM      1  C   UNL     1      29.080   6.190  48.177  1.00  0.00     0.067 A 
ATOM      2  C   UNL     1      28.038   5.276  48.443  1.00  0.00     0.058 A 
ATOM      3  C   UNL     1      26.750   5.708  48.755  1.00  0.00     0.086 A 
ATOM      4  C   UNL     1      26.536   7.092  48.840  1.00  0.00     0.144 A 
ATOM      5  C   UNL     1      27.553   8.016  48.601  1.00  0.00     0.076 A 
ATOM      6  C   UNL     1      28.856   7.584  48.302  1.00  0.00     0.064 A 
ENDROOT
BRANCH   1   7
ATOM      7  N   UNL     1      30.329   5.612  47.839  1.00  0.00    -0.321 N 
ATOM      8  C   UNL     1      31.366   5.313  48.705  1.00  0.00     0.247 C 
ATOM      9  O   UNL     1      31.498   5.632  49.880  1.00  0.00    -0.270 OA
ATOM     10  H   UNL     1      30.553   5.618  46.851  1.00  0.00     0.170 HD
BRANCH   8  11
ATOM     11  C   UNL     1      32.452   4.568  47.993  1.00  0.00     0.064 C 
ATOM     12  C   UNL     1      32.170   3.555  47.167  1.00  0.00     0.014 C 
ENDBRANCH   8  11
ENDBRANCH   1   7
BRANCH   6  13
ATOM     13  N   UNL     1      29.937   8.498  48.295  1.00  0.00    -0.372 N 
ATOM     14  C   UNL     1      30.361   8.954  46.963  1.00  0.00     0.143 C 
BRANCH  13  15
ATOM     15  C   UNL     1      29.756   9.554  49.315  1.00  0.00     0.131 C 
BRANCH  15  16
ATOM     16  C   UNL     1      30.433  10.875  48.885  1.00  0.00     0.105 C 
BRANCH  16  17
ATOM     17  N   UNL     1      29.531  12.051  48.937  1.00  0.00    -0.308 NA
ATOM     18  C   UNL     1      28.133  11.607  48.824  1.00  0.00     0.105 C 
ATOM     19  C   UNL     1      29.831  13.004  47.862  1.00  0.00     0.105 C 
ENDBRANCH  16  17
ENDBRANCH  15  16
ENDBRANCH  13  15
ENDBRANCH   6  13
BRANCH   3  20
ATOM     20  N   UNL     1      25.689   4.828  49.009  1.00  0.00    -0.321 N 
ATOM     21  H   UNL     1      24.926   4.890  48.346  1.00  0.00     0.170 HD
BRANCH  20  22
ATOM     22  C   UNL     1      25.212   4.301  50.210  1.00  0.00     0.227 A 
ATOM     23  N   UNL     1      24.113   4.790  50.809  1.00  0.00    -0.221 NA
ATOM     24  N   UNL     1      25.898   3.244  50.666  1.00  0.00    -0.213 NA
ATOM     25  C   UNL     1      23.707   4.170  51.934  1.00  0.00     0.117 A 
ATOM     26  C   UNL     1      25.468   2.646  51.802  1.00  0.00     0.078 A 
ATOM     27  C   UNL     1      24.359   3.092  52.482  1.00  0.00     0.049 A 
BRANCH  26  28
ATOM     28  C   UNL     1      26.268   1.503  52.246  1.00  0.00     0.026 A 
ATOM     29  C   UNL     1      25.864   0.205  51.986  1.00  0.00     0.096 A 
ATOM     30  C   UNL     1      27.501   1.404  52.987  1.00  0.00     0.009 A 
ATOM     31  N   UNL     1      26.794  -0.656  52.486  1.00  0.00    -0.350 N 
ATOM     32  C   UNL     1      28.393   2.326  53.590  1.00  0.00     0.011 A 
ATOM     33  C   UNL     1      27.812   0.039  53.098  1.00  0.00     0.048 A 
ATOM     34  C   UNL     1      29.555   1.874  54.232  1.00  0.00     0.001 A 
ATOM     35  C   UNL     1      28.971  -0.426  53.745  1.00  0.00     0.027 A 
ATOM     36  C   UNL     1      29.842   0.515  54.301  1.00  0.00     0.002 A 
ATOM     37  C   UNL     1      26.700  -2.098  52.408  1.00  0.00     0.149 C 
ENDBRANCH  26  28
ENDBRANCH  20  22
ENDBRANCH   3  20
BRANCH   4  38
ATOM     38  O   UNL     1      25.287   7.548  49.183  1.00  0.00    -0.494 OA
ATOM     39  C   UNL     1      25.350   8.277  50.416  1.00  0.00     0.278 C 
ENDBRANCH   4  38
TORSDOF 10
ENDMDL
MODEL 5
REMARK minimizedAffinity -8.67637634
REMARK minimizedRMSD -1
REMARK SMILES C=CC(=O)Nc1cc(Nc2nccc(-c3cn(C)c4ccccc34)n2)c(OC)cc1N(C)CCN(C)C
REMARK SMILES IDX 6 1 7 2 8 3 26 4 29 5 30 6 5 7 3 8 4 9 2 11 1 12 31 13 32 14
REMARK SMILES IDX 33 15 34 16 35 17 36 18 37 19 9 20 10 22 11 23 25 24 12 25
REMARK SMILES IDX 14 26 13 27 15 28 16 29 24 30 17 31 23 32 19 33 22 34 20 35
REMARK SMILES IDX 21 36 18 37 27 38 28 39
REMARK H PARENT 5 10 9 21
ROOT
ATOM      1  C   UNL     1      24.906   6.544  48.707  1.00  0.00     0.067 A 
ATOM      2  C   UNL     1      25.089   5.214  49.140  1.00  0.00     0.058 A 
ATOM      3  C   UNL     1      26.349   4.614  49.143  1.00  0.00     0.086 A 
ATOM      4  C   UNL     1      27.425   5.370  48.656  1.00  0.00     0.144 A 
ATOM      5  C   UNL     1      27.268   6.680  48.205  1.00  0.00     0.076 A 
ATOM      6  C   UNL     1      25.998   7.282  48.184  1.00  0.00     0.064 A 
ENDROOT
BRANCH   1   7
ATOM      7  N   UNL     1      23.580   7.038  48.790  1.00  0.00    -0.321 N 
ATOM      8  C   UNL     1      23.037   7.784  49.821  1.00  0.00     0.247 C 
ATOM      9  O   UNL     1      23.508   8.020  50.927  1.00  0.00    -0.270 OA
ATOM     10  H   UNL     1      22.926   6.627  48.136  1.00  0.00     0.170 HD
BRANCH   8  11
ATOM     11  C   UNL     1      21.658   8.249  49.469  1.00  0.00     0.064 C 
ATOM     12  C   UNL     1      21.442   9.488  49.013  1.00  0.00     0.014 C 
ENDBRANCH   8  11
ENDBRANCH   1   7
BRANCH   6  13
ATOM     13  N   UNL     1      25.791   8.511  47.512  1.00  0.00    -0.372 N 
ATOM     14  C   UNL     1      25.911   9.710  48.353  1.00  0.00     0.143 C 
BRANCH  13  15
ATOM     15  C   UNL     1      26.513   8.547  46.222  1.00  0.00     0.131 C 
BRANCH  15  16
ATOM     16  C   UNL     1      27.363   9.830  46.088  1.00  0.00     0.105 C 
BRANCH  16  17
ATOM     17  N   UNL     1      28.818   9.570  45.955  1.00  0.00    -0.308 NA
ATOM     18  C   UNL     1      29.030   8.263  45.313  1.00  0.00     0.105 C 
ATOM     19  C   UNL     1      29.486   9.588  47.261  1.00  0.00     0.105 C 
ENDBRANCH  16  17
ENDBRANCH  15  16
ENDBRANCH  13  15
ENDBRANCH   6  13
BRANCH   3  20
ATOM     20  N   UNL     1      26.568   3.301  49.581  1.00  0.00    -0.321 N 
ATOM     21  H   UNL     1      26.450   2.596  48.865  1.00  0.00     0.170 HD
BRANCH  20  22
ATOM     22  C   UNL     1      26.382   2.717  50.835  1.00  0.00     0.227 A 
ATOM     23  N   UNL     1      27.405   2.525  51.684  1.00  0.00    -0.221 NA
ATOM     24  N   UNL     1      25.106   2.433  51.134  1.00  0.00    -0.213 NA
ATOM     25  C   UNL     1      27.106   2.008  52.891  1.00  0.00     0.117 A 
ATOM     26  C   UNL     1      24.838   1.909  52.353  1.00  0.00     0.078 A 
ATOM     27  C   UNL     1      25.830   1.671  53.275  1.00  0.00     0.049 A 
BRANCH  26  28
ATOM     28  C   UNL     1      23.427   1.617  52.608  1.00  0.00     0.026 A 
ATOM     29  C   UNL     1      22.431   2.484  52.194  1.00  0.00     0.096 A 
ATOM     30  C   UNL     1      22.761   0.528  53.280  1.00  0.00     0.009 A 
ATOM     31  N   UNL     1      21.220   1.964  52.538  1.00  0.00    -0.350 N 
ATOM     32  C   UNL     1      23.179  -0.641  53.966  1.00  0.00     0.011 A 
ATOM     33  C   UNL     1      21.380   0.767  53.197  1.00  0.00     0.048 A 
ATOM     34  C   UNL     1      22.233  -1.529  54.495  1.00  0.00     0.001 A 
ATOM     35  C   UNL     1      20.423  -0.115  53.729  1.00  0.00     0.027 A 
ATOM     36  C   UNL     1      20.872  -1.272  54.371  1.00  0.00     0.002 A 
ATOM     37  C   UNL     1      19.949   2.604  52.272  1.00  0.00     0.149 C 
ENDBRANCH  26  28
ENDBRANCH  20  22
ENDBRANCH   3  20
BRANCH   4  38
ATOM     38  O   UNL     1      28.671   4.794  48.611  1.00  0.00    -0.494 OA
ATOM     39  C   UNL     1      29.612   5.700  48.020  1.00  0.00     0.278 C 
ENDBRANCH   4  38
TORSDOF 10
ENDMDL
MODEL 6
REMARK minimizedAffinity -8.65948105
REMARK minimizedRMSD -1
REMARK SMILES C=CC(=O)Nc1cc(Nc2nccc(-c3cn(C)c4ccccc34)n2)c(OC)cc1N(C)CCN(C)C
REMARK SMILES IDX 6 1 7 2 8 3 26 4 29 5 30 6 5 7 3 8 4 9 2 11 1 12 31 13 32 14
REMARK SMILES IDX 33 15 34 16 35 17 36 18 37 19 9 20 10 22 11 23 25 24 12 25
REMARK SMILES IDX 14 26 13 27 15 28 16 29 24 30 17 31 23 32 19 33 22 34 20 35
REMARK SMILES IDX 21 36 18 37 27 38 28 39
REMARK H PARENT 5 10 9 21
ROOT
ATOM      1  C   UNL     1      28.774   5.712  48.191  1.00  0.00     0.067 A 
ATOM      2  C   UNL     1      27.968   4.645  48.641  1.00  0.00     0.058 A 
ATOM      3  C   UNL     1      26.653   4.847  49.057  1.00  0.00     0.086 A 
ATOM      4  C   UNL     1      26.171   6.165  49.056  1.00  0.00     0.144 A 
ATOM      5  C   UNL     1      26.952   7.240  48.635  1.00  0.00     0.076 A 
ATOM      6  C   UNL     1      28.284   7.042  48.230  1.00  0.00     0.064 A 
ENDROOT
BRANCH   1   7
ATOM      7  N   UNL     1      30.078   5.358  47.764  1.00  0.00    -0.321 N 
ATOM      8  C   UNL     1      31.210   5.260  48.553  1.00  0.00     0.247 C 
ATOM      9  O   UNL     1      31.368   5.617  49.714  1.00  0.00    -0.270 OA
ATOM     10  H   UNL     1      30.225   5.387  46.762  1.00  0.00     0.170 HD
BRANCH   8  11
ATOM     11  C   UNL     1      32.357   4.706  47.766  1.00  0.00     0.064 C 
ATOM     12  C   UNL     1      32.209   3.622  46.996  1.00  0.00     0.014 C 
ENDBRANCH   8  11
ENDBRANCH   1   7
BRANCH   6  13
ATOM     13  N   UNL     1      29.150   8.144  48.032  1.00  0.00    -0.372 N 
ATOM     14  C   UNL     1      29.109   8.737  46.688  1.00  0.00     0.143 C 
BRANCH  13  15
ATOM     15  C   UNL     1      29.082   9.093  49.163  1.00  0.00     0.131 C 
BRANCH  15  16
ATOM     16  C   UNL     1      30.457   9.741  49.440  1.00  0.00     0.105 C 
BRANCH  16  17
ATOM     17  N   UNL     1      30.492  11.201  49.179  1.00  0.00    -0.308 NA
ATOM     18  C   UNL     1      29.141  11.675  48.840  1.00  0.00     0.105 C 
ATOM     19  C   UNL     1      31.415  11.527  48.085  1.00  0.00     0.105 C 
ENDBRANCH  16  17
ENDBRANCH  15  16
ENDBRANCH  13  15
ENDBRANCH   6  13
BRANCH   3  20
ATOM     20  N   UNL     1      25.821   3.807  49.495  1.00  0.00    -0.321 N 
ATOM     21  H   UNL     1      24.844   3.927  49.261  1.00  0.00     0.170 HD
BRANCH  20  22
ATOM     22  C   UNL     1      25.929   2.960  50.598  1.00  0.00     0.227 A 
ATOM     23  N   UNL     1      27.079   2.832  51.281  1.00  0.00    -0.221 NA
ATOM     24  N   UNL     1      24.787   2.349  50.947  1.00  0.00    -0.213 NA
ATOM     25  C   UNL     1      27.058   2.032  52.365  1.00  0.00     0.117 A 
ATOM     26  C   UNL     1      24.800   1.548  52.037  1.00  0.00     0.078 A 
ATOM     27  C   UNL     1      25.939   1.355  52.784  1.00  0.00     0.049 A 
BRANCH  26  28
ATOM     28  C   UNL     1      23.522   0.909  52.355  1.00  0.00     0.026 A 
ATOM     29  C   UNL     1      23.390   0.085  53.460  1.00  0.00     0.096 A 
ATOM     30  C   UNL     1      22.234   0.923  51.704  1.00  0.00     0.009 A 
ATOM     31  N   UNL     1      22.103  -0.356  53.531  1.00  0.00    -0.350 N 
ATOM     32  C   UNL     1      21.705   1.510  50.527  1.00  0.00     0.011 A 
ATOM     33  C   UNL     1      21.365   0.140  52.480  1.00  0.00     0.048 A 
ATOM     34  C   UNL     1      20.355   1.336  50.192  1.00  0.00     0.001 A 
ATOM     35  C   UNL     1      20.011  -0.046  52.151  1.00  0.00     0.027 A 
ATOM     36  C   UNL     1      19.518   0.574  50.999  1.00  0.00     0.002 A 
ATOM     37  C   UNL     1      21.600  -1.247  54.554  1.00  0.00     0.149 C 
ENDBRANCH  26  28
ENDBRANCH  20  22
ENDBRANCH   3  20
BRANCH   4  38
ATOM     38  O   UNL     1      24.893   6.401  49.498  1.00  0.00    -0.494 OA
ATOM     39  C   UNL     1      24.920   7.223  50.673  1.00  0.00     0.278 C 
ENDBRANCH   4  38
TORSDOF 10
ENDMDL
MODEL 7
REMARK minimizedAffinity -8.5431385
REMARK minimizedRMSD -1
REMARK SMILES C=CC(=O)Nc1cc(Nc2nccc(-c3cn(C)c4ccccc34)n2)c(OC)cc1N(C)CCN(C)C
REMARK SMILES IDX 6 1 7 2 8 3 26 4 29 5 30 6 5 7 3 8 4 9 2 11 1 12 31 13 32 14
REMARK SMILES IDX 33 15 34 16 35 17 36 18 37 19 9 20 10 22 11 23 25 24 12 25
REMARK SMILES IDX 14 26 13 27 15 28 16 29 24 30 17 31 23 32 19 33 22 34 20 35
REMARK SMILES IDX 21 36 18 37 27 38 28 39
REMARK H PARENT 5 10 9 21
ROOT
ATOM      1  C   UNL     1      25.637   2.665  51.767  1.00  0.00     0.067 A 
ATOM      2  C   UNL     1      26.597   3.023  50.796  1.00  0.00     0.058 A 
ATOM      3  C   UNL     1      26.265   3.817  49.698  1.00  0.00     0.086 A 
ATOM      4  C   UNL     1      24.925   4.211  49.569  1.00  0.00     0.144 A 
ATOM      5  C   UNL     1      23.953   3.855  50.503  1.00  0.00     0.076 A 
ATOM      6  C   UNL     1      24.280   3.042  51.602  1.00  0.00     0.064 A 
ENDROOT
BRANCH   1   7
ATOM      7  N   UNL     1      26.120   1.886  52.847  1.00  0.00    -0.321 N 
ATOM      8  C   UNL     1      26.620   0.598  52.781  1.00  0.00     0.247 C 
ATOM      9  O   UNL     1      26.592  -0.188  51.842  1.00  0.00    -0.270 OA
ATOM     10  H   UNL     1      25.879   2.231  53.768  1.00  0.00     0.170 HD
BRANCH   8  11
ATOM     11  C   UNL     1      27.176   0.177  54.106  1.00  0.00     0.064 C 
ATOM     12  C   UNL     1      28.496   0.140  54.323  1.00  0.00     0.014 C 
ENDBRANCH   8  11
ENDBRANCH   1   7
BRANCH   6  13
ATOM     13  N   UNL     1      23.265   2.483  52.415  1.00  0.00    -0.372 N 
ATOM     14  C   UNL     1      22.070   3.321  52.586  1.00  0.00     0.143 C 
BRANCH  13  15
ATOM     15  C   UNL     1      23.021   1.065  52.073  1.00  0.00     0.131 C 
BRANCH  15  16
ATOM     16  C   UNL     1      22.923   0.189  53.342  1.00  0.00     0.105 C 
BRANCH  16  17
ATOM     17  N   UNL     1      21.615  -0.495  53.493  1.00  0.00    -0.308 NA
ATOM     18  C   UNL     1      20.678   0.382  54.212  1.00  0.00     0.105 C 
ATOM     19  C   UNL     1      21.755  -1.763  54.220  1.00  0.00     0.105 C 
ENDBRANCH  16  17
ENDBRANCH  15  16
ENDBRANCH  13  15
ENDBRANCH   6  13
BRANCH   3  20
ATOM     20  N   UNL     1      27.196   4.203  48.725  1.00  0.00    -0.321 N 
ATOM     21  H   UNL     1      27.713   3.437  48.312  1.00  0.00     0.170 HD
BRANCH  20  22
ATOM     22  C   UNL     1      27.935   5.380  48.589  1.00  0.00     0.227 A 
ATOM     23  N   UNL     1      27.358   6.590  48.681  1.00  0.00    -0.221 NA
ATOM     24  N   UNL     1      29.253   5.196  48.429  1.00  0.00    -0.213 NA
ATOM     25  C   UNL     1      28.172   7.660  48.593  1.00  0.00     0.117 A 
ATOM     26  C   UNL     1      30.043   6.291  48.339  1.00  0.00     0.078 A 
ATOM     27  C   UNL     1      29.530   7.565  48.411  1.00  0.00     0.049 A 
BRANCH  26  28
ATOM     28  C   UNL     1      31.469   6.016  48.158  1.00  0.00     0.026 A 
ATOM     29  C   UNL     1      32.429   6.937  48.541  1.00  0.00     0.096 A 
ATOM     30  C   UNL     1      32.185   4.897  47.595  1.00  0.00     0.009 A 
ATOM     31  N   UNL     1      33.664   6.423  48.282  1.00  0.00    -0.350 N 
ATOM     32  C   UNL     1      31.820   3.670  46.985  1.00  0.00     0.011 A 
ATOM     33  C   UNL     1      33.556   5.177  47.710  1.00  0.00     0.048 A 
ATOM     34  C   UNL     1      32.806   2.769  46.559  1.00  0.00     0.001 A 
ATOM     35  C   UNL     1      34.553   4.282  47.281  1.00  0.00     0.027 A 
ATOM     36  C   UNL     1      34.154   3.069  46.713  1.00  0.00     0.002 A 
ATOM     37  C   UNL     1      34.908   7.114  48.544  1.00  0.00     0.149 C 
ENDBRANCH  26  28
ENDBRANCH  20  22
ENDBRANCH   3  20
BRANCH   4  38
ATOM     38  O   UNL     1      24.559   4.960  48.478  1.00  0.00    -0.494 OA
ATOM     39  C   UNL     1      23.154   5.244  48.523  1.00  0.00     0.278 C 
ENDBRANCH   4  38
TORSDOF 10
ENDMDL
MODEL 8
REMARK minimizedAffinity -8.29979324
REMARK minimizedRMSD -1
REMARK SMILES C=CC(=O)Nc1cc(Nc2nccc(-c3cn(C)c4ccccc34)n2)c(OC)cc1N(C)CCN(C)C
REMARK SMILES IDX 6 1 7 2 8 3 26 4 29 5 30 6 5 7 3 8 4 9 2 11 1 12 31 13 32 14
REMARK SMILES IDX 33 15 34 16 35 17 36 18 37 19 9 20 10 22 11 23 25 24 12 25
REMARK SMILES IDX 14 26 13 27 15 28 16 29 24 30 17 31 23 32 19 33 22 34 20 35
REMARK SMILES IDX 21 36 18 37 27 38 28 39
REMARK H PARENT 5 10 9 21
ROOT
ATOM      1  C   UNL     1      27.841   6.971  48.546  1.00  0.00     0.067 A 
ATOM      2  C   UNL     1      27.055   5.896  49.013  1.00  0.00     0.058 A 
ATOM      3  C   UNL     1      25.678   5.848  48.796  1.00  0.00     0.086 A 
ATOM      4  C   UNL     1      25.092   6.936  48.133  1.00  0.00     0.144 A 
ATOM      5  C   UNL     1      25.842   8.020  47.678  1.00  0.00     0.076 A 
ATOM      6  C   UNL     1      27.227   8.079  47.909  1.00  0.00     0.064 A 
ENDROOT
BRANCH   1   7
ATOM      7  N   UNL     1      29.230   6.872  48.805  1.00  0.00    -0.321 N 
ATOM      8  C   UNL     1      30.087   5.881  48.361  1.00  0.00     0.247 C 
ATOM      9  O   UNL     1      29.813   4.817  47.818  1.00  0.00    -0.270 OA
ATOM     10  H   UNL     1      29.572   7.464  49.552  1.00  0.00     0.170 HD
BRANCH   8  11
ATOM     11  C   UNL     1      31.505   6.212  48.710  1.00  0.00     0.064 C 
ATOM     12  C   UNL     1      31.917   6.236  49.983  1.00  0.00     0.014 C 
ENDBRANCH   8  11
ENDBRANCH   1   7
BRANCH   6  13
ATOM     13  N   UNL     1      27.950   9.271  47.667  1.00  0.00    -0.372 N 
ATOM     14  C   UNL     1      27.748   9.866  46.338  1.00  0.00     0.143 C 
BRANCH  13  15
ATOM     15  C   UNL     1      27.858  10.200  48.815  1.00  0.00     0.131 C 
BRANCH  15  16
ATOM     16  C   UNL     1      27.115  11.499  48.430  1.00  0.00     0.105 C 
BRANCH  16  17
ATOM     17  N   UNL     1      27.768  12.731  48.939  1.00  0.00    -0.308 NA
ATOM     18  C   UNL     1      27.364  13.881  48.115  1.00  0.00     0.105 C 
ATOM     19  C   UNL     1      29.230  12.607  48.924  1.00  0.00     0.105 C 
ENDBRANCH  16  17
ENDBRANCH  15  16
ENDBRANCH  13  15
ENDBRANCH   6  13
BRANCH   3  20
ATOM     20  N   UNL     1      24.871   4.788  49.232  1.00  0.00    -0.321 N 
ATOM     21  H   UNL     1      24.066   4.607  48.647  1.00  0.00     0.170 HD
BRANCH  20  22
ATOM     22  C   UNL     1      24.624   4.304  50.517  1.00  0.00     0.227 A 
ATOM     23  N   UNL     1      23.656   4.820  51.293  1.00  0.00    -0.221 NA
ATOM     24  N   UNL     1      25.379   3.254  50.873  1.00  0.00    -0.213 NA
ATOM     25  C   UNL     1      23.464   4.240  52.493  1.00  0.00     0.117 A 
ATOM     26  C   UNL     1      25.165   2.697  52.087  1.00  0.00     0.078 A 
ATOM     27  C   UNL     1      24.202   3.173  52.946  1.00  0.00     0.049 A 
BRANCH  26  28
ATOM     28  C   UNL     1      26.029   1.561  52.412  1.00  0.00     0.026 A 
ATOM     29  C   UNL     1      25.643   0.263  52.124  1.00  0.00     0.096 A 
ATOM     30  C   UNL     1      27.321   1.467  53.048  1.00  0.00     0.009 A 
ATOM     31  N   UNL     1      26.634  -0.589  52.508  1.00  0.00    -0.350 N 
ATOM     32  C   UNL     1      28.232   2.389  53.622  1.00  0.00     0.011 A 
ATOM     33  C   UNL     1      27.677   0.109  53.070  1.00  0.00     0.048 A 
ATOM     34  C   UNL     1      29.453   1.945  54.148  1.00  0.00     0.001 A 
ATOM     35  C   UNL     1      28.897  -0.347  53.600  1.00  0.00     0.027 A 
ATOM     36  C   UNL     1      29.783   0.595  54.129  1.00  0.00     0.002 A 
ATOM     37  C   UNL     1      26.573  -2.028  52.370  1.00  0.00     0.149 C 
ENDBRANCH  26  28
ENDBRANCH  20  22
ENDBRANCH   3  20
BRANCH   4  38
ATOM     38  O   UNL     1      23.732   6.937  47.938  1.00  0.00    -0.494 OA
ATOM     39  C   UNL     1      23.392   7.791  46.837  1.00  0.00     0.278 C 
ENDBRANCH   4  38
TORSDOF 10
ENDMDL
MODEL 9
REMARK minimizedAffinity -8.24847507
REMARK minimizedRMSD -1
REMARK SMILES C=CC(=O)Nc1cc(Nc2nccc(-c3cn(C)c4ccccc34)n2)c(OC)cc1N(C)CCN(C)C
REMARK SMILES IDX 6 1 7 2 8 3 26 4 29 5 30 6 5 7 3 8 4 9 2 11 1 12 31 13 32 14
REMARK SMILES IDX 33 15 34 16 35 17 36 18 37 19 9 20 10 22 11 23 25 24 12 25
REMARK SMILES IDX 14 26 13 27 15 28 16 29 24 30 17 31 23 32 19 33 22 34 20 35
REMARK SMILES IDX 21 36 18 37 27 38 28 39
REMARK H PARENT 5 10 9 21
ROOT
ATOM      1  C   UNL     1      24.650   6.178  49.376  1.00  0.00     0.067 A 
ATOM      2  C   UNL     1      25.024   4.885  49.801  1.00  0.00     0.058 A 
ATOM      3  C   UNL     1      26.295   4.372  49.546  1.00  0.00     0.086 A 
ATOM      4  C   UNL     1      27.178   5.173  48.807  1.00  0.00     0.144 A 
ATOM      5  C   UNL     1      26.828   6.445  48.358  1.00  0.00     0.076 A 
ATOM      6  C   UNL     1      25.542   6.960  48.599  1.00  0.00     0.064 A 
ENDROOT
BRANCH   1   7
ATOM      7  N   UNL     1      23.341   6.585  49.734  1.00  0.00    -0.321 N 
ATOM      8  C   UNL     1      22.190   5.819  49.678  1.00  0.00     0.247 C 
ATOM      9  O   UNL     1      22.024   4.722  49.159  1.00  0.00    -0.270 OA
ATOM     10  H   UNL     1      23.214   7.585  49.837  1.00  0.00     0.170 HD
BRANCH   8  11
ATOM     11  C   UNL     1      21.036   6.552  50.289  1.00  0.00     0.064 C 
ATOM     12  C   UNL     1      20.973   7.888  50.263  1.00  0.00     0.014 C 
ENDBRANCH   8  11
ENDBRANCH   1   7
BRANCH   6  13
ATOM     13  N   UNL     1      25.101   8.137  47.948  1.00  0.00    -0.372 N 
ATOM     14  C   UNL     1      25.540   9.395  48.569  1.00  0.00     0.143 C 
BRANCH  13  15
ATOM     15  C   UNL     1      25.275   8.040  46.483  1.00  0.00     0.131 C 
BRANCH  15  16
ATOM     16  C   UNL     1      23.914   8.063  45.751  1.00  0.00     0.105 C 
BRANCH  16  17
ATOM     17  N   UNL     1      22.797   7.507  46.554  1.00  0.00    -0.308 NA
ATOM     18  C   UNL     1      22.347   6.238  45.963  1.00  0.00     0.105 C 
ATOM     19  C   UNL     1      21.668   8.444  46.620  1.00  0.00     0.105 C 
ENDBRANCH  16  17
ENDBRANCH  15  16
ENDBRANCH  13  15
ENDBRANCH   6  13
BRANCH   3  20
ATOM     20  N   UNL     1      26.704   3.099  49.969  1.00  0.00    -0.321 N 
ATOM     21  H   UNL     1      26.675   2.390  49.248  1.00  0.00     0.170 HD
BRANCH  20  22
ATOM     22  C   UNL     1      26.621   2.486  51.220  1.00  0.00     0.227 A 
ATOM     23  N   UNL     1      27.670   2.448  52.058  1.00  0.00    -0.221 NA
ATOM     24  N   UNL     1      25.407   2.008  51.527  1.00  0.00    -0.213 NA
ATOM     25  C   UNL     1      27.465   1.884  53.264  1.00  0.00     0.117 A 
ATOM     26  C   UNL     1      25.235   1.442  52.744  1.00  0.00     0.078 A 
ATOM     27  C   UNL     1      26.260   1.353  53.656  1.00  0.00     0.049 A 
BRANCH  26  28
ATOM     28  C   UNL     1      23.887   0.936  53.010  1.00  0.00     0.026 A 
ATOM     29  C   UNL     1      23.692  -0.279  53.644  1.00  0.00     0.096 A 
ATOM     30  C   UNL     1      22.573   1.454  52.716  1.00  0.00     0.009 A 
ATOM     31  N   UNL     1      22.354  -0.496  53.783  1.00  0.00    -0.350 N 
ATOM     32  C   UNL     1      22.066   2.600  52.053  1.00  0.00     0.011 A 
ATOM     33  C   UNL     1      21.639   0.543  53.235  1.00  0.00     0.048 A 
ATOM     34  C   UNL     1      20.683   2.816  51.967  1.00  0.00     0.001 A 
ATOM     35  C   UNL     1      20.250   0.747  53.148  1.00  0.00     0.027 A 
ATOM     36  C   UNL     1      19.789   1.904  52.515  1.00  0.00     0.002 A 
ATOM     37  C   UNL     1      21.776  -1.674  54.393  1.00  0.00     0.149 C 
ENDBRANCH  26  28
ENDBRANCH  20  22
ENDBRANCH   3  20
BRANCH   4  38
ATOM     38  O   UNL     1      28.424   4.679  48.507  1.00  0.00    -0.494 OA
ATOM     39  C   UNL     1      29.313   5.754  48.173  1.00  0.00     0.278 C 
ENDBRANCH   4  38
TORSDOF 10
ENDMDL
MODEL 10
REMARK minimizedAffinity -8.23415756
REMARK minimizedRMSD -1
REMARK SMILES C=CC(=O)Nc1cc(Nc2nccc(-c3cn(C)c4ccccc34)n2)c(OC)cc1N(C)CCN(C)C
REMARK SMILES IDX 6 1 7 2 8 3 26 4 29 5 30 6 5 7 3 8 4 9 2 11 1 12 31 13 32 14
REMARK SMILES IDX 33 15 34 16 35 17 36 18 37 19 9 20 10 22 11 23 25 24 12 25
REMARK SMILES IDX 14 26 13 27 15 28 16 29 24 30 17 31 23 32 19 33 22 34 20 35
REMARK SMILES IDX 21 36 18 37 27 38 28 39
REMARK H PARENT 5 10 9 21
ROOT
ATOM      1  C   UNL     1      26.481   2.197  51.721  1.00  0.00     0.067 A 
ATOM      2  C   UNL     1      26.803   3.065  50.655  1.00  0.00     0.058 A 
ATOM      3  C   UNL     1      25.857   3.931  50.107  1.00  0.00     0.086 A 
ATOM      4  C   UNL     1      24.555   3.876  50.625  1.00  0.00     0.144 A 
ATOM      5  C   UNL     1      24.205   3.015  51.664  1.00  0.00     0.076 A 
ATOM      6  C   UNL     1      25.151   2.129  52.208  1.00  0.00     0.064 A 
ENDROOT
BRANCH   1   7
ATOM      7  N   UNL     1      27.547   1.398  52.204  1.00  0.00    -0.321 N 
ATOM      8  C   UNL     1      28.366   1.675  53.284  1.00  0.00     0.247 C 
ATOM      9  O   UNL     1      28.464   2.714  53.925  1.00  0.00    -0.270 OA
ATOM     10  H   UNL     1      27.861   0.672  51.572  1.00  0.00     0.170 HD
BRANCH   8  11
ATOM     11  C   UNL     1      29.268   0.515  53.574  1.00  0.00     0.064 C 
ATOM     12  C   UNL     1      28.854  -0.745  53.398  1.00  0.00     0.014 C 
ENDBRANCH   8  11
ENDBRANCH   1   7
BRANCH   6  13
ATOM     13  N   UNL     1      24.751   1.095  53.088  1.00  0.00    -0.372 N 
ATOM     14  C   UNL     1      25.206   1.246  54.478  1.00  0.00     0.143 C 
BRANCH  13  15
ATOM     15  C   UNL     1      23.323   0.755  52.905  1.00  0.00     0.131 C 
BRANCH  15  16
ATOM     16  C   UNL     1      23.039  -0.713  53.298  1.00  0.00     0.105 C 
BRANCH  16  17
ATOM     17  N   UNL     1      22.259  -0.853  54.553  1.00  0.00    -0.308 NA
ATOM     18  C   UNL     1      23.060  -1.572  55.555  1.00  0.00     0.105 C 
ATOM     19  C   UNL     1      21.001  -1.573  54.323  1.00  0.00     0.105 C 
ENDBRANCH  16  17
ENDBRANCH  15  16
ENDBRANCH  13  15
ENDBRANCH   6  13
BRANCH   3  20
ATOM     20  N   UNL     1      26.148   4.816  49.060  1.00  0.00    -0.321 N 
ATOM     21  H   UNL     1      25.643   4.631  48.203  1.00  0.00     0.170 HD
BRANCH  20  22
ATOM     22  C   UNL     1      27.316   5.518  48.761  1.00  0.00     0.227 A 
ATOM     23  N   UNL     1      28.458   4.887  48.440  1.00  0.00    -0.221 NA
ATOM     24  N   UNL     1      27.181   6.852  48.760  1.00  0.00    -0.213 NA
ATOM     25  C   UNL     1      29.511   5.661  48.112  1.00  0.00     0.117 A 
ATOM     26  C   UNL     1      28.258   7.602  48.431  1.00  0.00     0.078 A 
ATOM     27  C   UNL     1      29.466   7.034  48.101  1.00  0.00     0.049 A 
BRANCH  26  28
ATOM     28  C   UNL     1      28.040   9.050  48.457  1.00  0.00     0.026 A 
ATOM     29  C   UNL     1      26.791   9.589  48.205  1.00  0.00     0.096 A 
ATOM     30  C   UNL     1      28.924  10.166  48.691  1.00  0.00     0.009 A 
ATOM     31  N   UNL     1      26.864  10.945  48.313  1.00  0.00    -0.350 N 
ATOM     32  C   UNL     1      30.309  10.320  48.950  1.00  0.00     0.011 A 
ATOM     33  C   UNL     1      28.148  11.335  48.616  1.00  0.00     0.048 A 
ATOM     34  C   UNL     1      30.854  11.594  49.162  1.00  0.00     0.001 A 
ATOM     35  C   UNL     1      28.686  12.618  48.820  1.00  0.00     0.027 A 
ATOM     36  C   UNL     1      30.050  12.727  49.104  1.00  0.00     0.002 A 
ATOM     37  C   UNL     1      25.749  11.844  48.105  1.00  0.00     0.149 C 
ENDBRANCH  26  28
ENDBRANCH  20  22
ENDBRANCH   3  20
BRANCH   4  38
ATOM     38  O   UNL     1      23.592   4.689  50.080  1.00  0.00    -0.494 OA
ATOM     39  C   UNL     1      23.028   5.533  51.093  1.00  0.00     0.278 C 
ENDBRANCH   4  38
TORSDOF 10
ENDMDL
MODEL 11
REMARK minimizedAffinity -8.22950172
REMARK minimizedRMSD -1
REMARK SMILES C=CC(=O)Nc1cc(Nc2nccc(-c3cn(C)c4ccccc34)n2)c(OC)cc1N(C)CCN(C)C
REMARK SMILES IDX 6 1 7 2 8 3 26 4 29 5 30 6 5 7 3 8 4 9 2 11 1 12 31 13 32 14
REMARK SMILES IDX 33 15 34 16 35 17 36 18 37 19 9 20 10 22 11 23 25 24 12 25
REMARK SMILES IDX 14 26 13 27 15 28 16 29 24 30 17 31 23 32 19 33 22 34 20 35
REMARK SMILES IDX 21 36 18 37 27 38 28 39
REMARK H PARENT 5 10 9 21
ROOT
ATOM      1  C   UNL     1      25.845   6.600  49.290  1.00  0.00     0.067 A 
ATOM      2  C   UNL     1      25.473   5.904  50.460  1.00  0.00     0.058 A 
ATOM      3  C   UNL     1      24.160   5.915  50.930  1.00  0.00     0.086 A 
ATOM      4  C   UNL     1      23.227   6.684  50.220  1.00  0.00     0.144 A 
ATOM      5  C   UNL     1      23.572   7.397  49.072  1.00  0.00     0.076 A 
ATOM      6  C   UNL     1      24.897   7.401  48.604  1.00  0.00     0.064 A 
ENDROOT
BRANCH   1   7
ATOM      7  N   UNL     1      27.203   6.473  48.908  1.00  0.00    -0.321 N 
ATOM      8  C   UNL     1      27.875   5.300  48.612  1.00  0.00     0.247 C 
ATOM      9  O   UNL     1      27.509   4.144  48.782  1.00  0.00    -0.270 OA
ATOM     10  H   UNL     1      27.775   7.292  49.072  1.00  0.00     0.170 HD
BRANCH   8  11
ATOM     11  C   UNL     1      29.250   5.593  48.097  1.00  0.00     0.064 C 
ATOM     12  C   UNL     1      29.541   6.769  47.531  1.00  0.00     0.014 C 
ENDBRANCH   8  11
ENDBRANCH   1   7
BRANCH   6  13
ATOM     13  N   UNL     1      25.303   8.303  47.592  1.00  0.00    -0.372 N 
ATOM     14  C   UNL     1      24.652   8.112  46.288  1.00  0.00     0.143 C 
BRANCH  13  15
ATOM     15  C   UNL     1      25.352   9.693  48.096  1.00  0.00     0.131 C 
BRANCH  15  16
ATOM     16  C   UNL     1      26.692  10.374  47.741  1.00  0.00     0.105 C 
BRANCH  16  17
ATOM     17  N   UNL     1      27.876   9.709  48.339  1.00  0.00    -0.308 NA
ATOM     18  C   UNL     1      27.784   9.763  49.806  1.00  0.00     0.105 C 
ATOM     19  C   UNL     1      29.125  10.344  47.902  1.00  0.00     0.105 C 
ENDBRANCH  16  17
ENDBRANCH  15  16
ENDBRANCH  13  15
ENDBRANCH   6  13
BRANCH   3  20
ATOM     20  N   UNL     1      23.754   5.222  52.079  1.00  0.00    -0.321 N 
ATOM     21  H   UNL     1      24.122   5.595  52.945  1.00  0.00     0.170 HD
BRANCH  20  22
ATOM     22  C   UNL     1      23.426   3.878  52.262  1.00  0.00     0.227 A 
ATOM     23  N   UNL     1      22.154   3.449  52.216  1.00  0.00    -0.221 NA
ATOM     24  N   UNL     1      24.479   3.063  52.418  1.00  0.00    -0.213 NA
ATOM     25  C   UNL     1      21.953   2.123  52.347  1.00  0.00     0.117 A 
ATOM     26  C   UNL     1      24.244   1.737  52.552  1.00  0.00     0.078 A 
ATOM     27  C   UNL     1      22.971   1.218  52.528  1.00  0.00     0.049 A 
BRANCH  26  28
ATOM     28  C   UNL     1      25.438   0.907  52.726  1.00  0.00     0.026 A 
ATOM     29  C   UNL     1      25.400  -0.457  52.498  1.00  0.00     0.096 A 
ATOM     30  C   UNL     1      26.786   1.211  53.141  1.00  0.00     0.009 A 
ATOM     31  N   UNL     1      26.641  -0.977  52.711  1.00  0.00    -0.350 N 
ATOM     32  C   UNL     1      27.473   2.377  53.563  1.00  0.00     0.011 A 
ATOM     33  C   UNL     1      27.516   0.012  53.098  1.00  0.00     0.048 A 
ATOM     34  C   UNL     1      28.838   2.320  53.880  1.00  0.00     0.001 A 
ATOM     35  C   UNL     1      28.883  -0.057  53.420  1.00  0.00     0.027 A 
ATOM     36  C   UNL     1      29.534   1.120  53.801  1.00  0.00     0.002 A 
ATOM     37  C   UNL     1      26.975  -2.378  52.578  1.00  0.00     0.149 C 
ENDBRANCH  26  28
ENDBRANCH  20  22
ENDBRANCH   3  20
BRANCH   4  38
ATOM     38  O   UNL     1      21.934   6.746  50.681  1.00  0.00    -0.494 OA
ATOM     39  C   UNL     1      21.016   6.528  49.602  1.00  0.00     0.278 C 
ENDBRANCH   4  38
TORSDOF 10
ENDMDL
MODEL 12
REMARK minimizedAffinity -8.18014717
REMARK minimizedRMSD -1
REMARK SMILES C=CC(=O)Nc1cc(Nc2nccc(-c3cn(C)c4ccccc34)n2)c(OC)cc1N(C)CCN(C)C
REMARK SMILES IDX 6 1 7 2 8 3 26 4 29 5 30 6 5 7 3 8 4 9 2 11 1 12 31 13 32 14
REMARK SMILES IDX 33 15 34 16 35 17 36 18 37 19 9 20 10 22 11 23 25 24 12 25
REMARK SMILES IDX 14 26 13 27 15 28 16 29 24 30 17 31 23 32 19 33 22 34 20 35
REMARK SMILES IDX 21 36 18 37 27 38 28 39
REMARK H PARENT 5 10 9 21
ROOT
ATOM      1  C   UNL     1      24.234   1.938  52.366  1.00  0.00     0.067 A 
ATOM      2  C   UNL     1      24.708   3.207  51.973  1.00  0.00     0.058 A 
ATOM      3  C   UNL     1      23.845   4.289  51.803  1.00  0.00     0.086 A 
ATOM      4  C   UNL     1      22.475   4.057  51.994  1.00  0.00     0.144 A 
ATOM      5  C   UNL     1      21.978   2.808  52.365  1.00  0.00     0.076 A 
ATOM      6  C   UNL     1      22.843   1.712  52.521  1.00  0.00     0.064 A 
ENDROOT
BRANCH   1   7
ATOM      7  N   UNL     1      25.225   0.939  52.536  1.00  0.00    -0.321 N 
ATOM      8  C   UNL     1      26.098   0.810  53.602  1.00  0.00     0.247 C 
ATOM      9  O   UNL     1      26.319   1.601  54.511  1.00  0.00    -0.270 OA
ATOM     10  H   UNL     1      25.446   0.406  51.704  1.00  0.00     0.170 HD
BRANCH   8  11
ATOM     11  C   UNL     1      26.883  -0.459  53.493  1.00  0.00     0.064 C 
ATOM     12  C   UNL     1      26.664  -1.326  52.497  1.00  0.00     0.014 C 
ENDBRANCH   8  11
ENDBRANCH   1   7
BRANCH   6  13
ATOM     13  N   UNL     1      22.330   0.400  52.659  1.00  0.00    -0.372 N 
ATOM     14  C   UNL     1      22.105  -0.040  54.044  1.00  0.00     0.143 C 
BRANCH  13  15
ATOM     15  C   UNL     1      21.221   0.152  51.712  1.00  0.00     0.131 C 
BRANCH  15  16
ATOM     16  C   UNL     1      19.900  -0.147  52.456  1.00  0.00     0.105 C 
BRANCH  16  17
ATOM     17  N   UNL     1      18.696  -0.048  51.595  1.00  0.00    -0.308 NA
ATOM     18  C   UNL     1      18.515   1.345  51.157  1.00  0.00     0.105 C 
ATOM     19  C   UNL     1      17.493  -0.499  52.304  1.00  0.00     0.105 C 
ENDBRANCH  16  17
ENDBRANCH  15  16
ENDBRANCH  13  15
ENDBRANCH   6  13
BRANCH   3  20
ATOM     20  N   UNL     1      24.284   5.566  51.428  1.00  0.00    -0.321 N 
ATOM     21  H   UNL     1      23.976   6.311  52.040  1.00  0.00     0.170 HD
BRANCH  20  22
ATOM     22  C   UNL     1      24.573   6.095  50.170  1.00  0.00     0.227 A 
ATOM     23  N   UNL     1      23.636   6.192  49.212  1.00  0.00    -0.221 NA
ATOM     24  N   UNL     1      25.827   6.549  50.030  1.00  0.00    -0.213 NA
ATOM     25  C   UNL     1      24.007   6.771  48.053  1.00  0.00     0.117 A 
ATOM     26  C   UNL     1      26.170   7.121  48.852  1.00  0.00     0.078 A 
ATOM     27  C   UNL     1      25.274   7.248  47.817  1.00  0.00     0.049 A 
BRANCH  26  28
ATOM     28  C   UNL     1      27.555   7.588  48.767  1.00  0.00     0.026 A 
ATOM     29  C   UNL     1      27.879   8.913  49.000  1.00  0.00     0.096 A 
ATOM     30  C   UNL     1      28.792   6.920  48.444  1.00  0.00     0.009 A 
ATOM     31  N   UNL     1      29.227   9.068  48.877  1.00  0.00    -0.350 N 
ATOM     32  C   UNL     1      29.159   5.604  48.063  1.00  0.00     0.011 A 
ATOM     33  C   UNL     1      29.820   7.871  48.545  1.00  0.00     0.048 A 
ATOM     34  C   UNL     1      30.505   5.279  47.841  1.00  0.00     0.001 A 
ATOM     35  C   UNL     1      31.172   7.557  48.319  1.00  0.00     0.027 A 
ATOM     36  C   UNL     1      31.498   6.242  47.976  1.00  0.00     0.002 A 
ATOM     37  C   UNL     1      29.924  10.325  49.042  1.00  0.00     0.149 C 
ENDBRANCH  26  28
ENDBRANCH  20  22
ENDBRANCH   3  20
BRANCH   4  38
ATOM     38  O   UNL     1      21.595   5.093  51.797  1.00  0.00    -0.494 OA
ATOM     39  C   UNL     1      20.540   4.684  50.917  1.00  0.00     0.278 C 
ENDBRANCH   4  38
TORSDOF 10
ENDMDL
MODEL 13
REMARK minimizedAffinity -8.17279243
REMARK minimizedRMSD -1
REMARK SMILES C=CC(=O)Nc1cc(Nc2nccc(-c3cn(C)c4ccccc34)n2)c(OC)cc1N(C)CCN(C)C
REMARK SMILES IDX 6 1 7 2 8 3 26 4 29 5 30 6 5 7 3 8 4 9 2 11 1 12 31 13 32 14
REMARK SMILES IDX 33 15 34 16 35 17 36 18 37 19 9 20 10 22 11 23 25 24 12 25
REMARK SMILES IDX 14 26 13 27 15 28 16 29 24 30 17 31 23 32 19 33 22 34 20 35
REMARK SMILES IDX 21 36 18 37 27 38 28 39
REMARK H PARENT 5 10 9 21
ROOT
ATOM      1  C   UNL     1      29.461   6.282  47.611  1.00  0.00     0.067 A 
ATOM      2  C   UNL     1      28.500   5.872  48.560  1.00  0.00     0.058 A 
ATOM      3  C   UNL     1      27.330   6.600  48.775  1.00  0.00     0.086 A 
ATOM      4  C   UNL     1      27.163   7.785  48.044  1.00  0.00     0.144 A 
ATOM      5  C   UNL     1      28.105   8.223  47.115  1.00  0.00     0.076 A 
ATOM      6  C   UNL     1      29.293   7.501  46.907  1.00  0.00     0.064 A 
ENDROOT
BRANCH   1   7
ATOM      7  N   UNL     1      30.584   5.430  47.470  1.00  0.00    -0.321 N 
ATOM      8  C   UNL     1      31.668   5.339  48.326  1.00  0.00     0.247 C 
ATOM      9  O   UNL     1      31.970   6.072  49.260  1.00  0.00    -0.270 OA
ATOM     10  H   UNL     1      30.694   5.010  46.556  1.00  0.00     0.170 HD
BRANCH   8  11
ATOM     11  C   UNL     1      32.569   4.214  47.922  1.00  0.00     0.064 C 
ATOM     12  C   UNL     1      33.153   4.193  46.718  1.00  0.00     0.014 C 
ENDBRANCH   8  11
ENDBRANCH   1   7
BRANCH   6  13
ATOM     13  N   UNL     1      30.354   8.057  46.151  1.00  0.00    -0.372 N 
ATOM     14  C   UNL     1      29.948   8.745  44.917  1.00  0.00     0.143 C 
BRANCH  13  15
ATOM     15  C   UNL     1      31.308   8.784  47.016  1.00  0.00     0.131 C 
BRANCH  15  16
ATOM     16  C   UNL     1      30.969  10.290  47.088  1.00  0.00     0.105 C 
BRANCH  16  17
ATOM     17  N   UNL     1      30.385  10.708  48.386  1.00  0.00    -0.308 NA
ATOM     18  C   UNL     1      30.934  12.015  48.777  1.00  0.00     0.105 C 
ATOM     19  C   UNL     1      30.663   9.724  49.439  1.00  0.00     0.105 C 
ENDBRANCH  16  17
ENDBRANCH  15  16
ENDBRANCH  13  15
ENDBRANCH   6  13
BRANCH   3  20
ATOM     20  N   UNL     1      26.348   6.212  49.698  1.00  0.00    -0.321 N 
ATOM     21  H   UNL     1      26.591   6.384  50.665  1.00  0.00     0.170 HD
BRANCH  20  22
ATOM     22  C   UNL     1      25.396   5.194  49.638  1.00  0.00     0.227 A 
ATOM     23  N   UNL     1      24.374   5.231  48.766  1.00  0.00    -0.221 NA
ATOM     24  N   UNL     1      25.627   4.165  50.467  1.00  0.00    -0.213 NA
ATOM     25  C   UNL     1      23.546   4.169  48.753  1.00  0.00     0.117 A 
ATOM     26  C   UNL     1      24.774   3.115  50.433  1.00  0.00     0.078 A 
ATOM     27  C   UNL     1      23.697   3.081  49.578  1.00  0.00     0.049 A 
BRANCH  26  28
ATOM     28  C   UNL     1      25.082   2.032  51.369  1.00  0.00     0.026 A 
ATOM     29  C   UNL     1      26.385   1.608  51.567  1.00  0.00     0.096 A 
ATOM     30  C   UNL     1      24.253   1.202  52.208  1.00  0.00     0.009 A 
ATOM     31  N   UNL     1      26.389   0.612  52.497  1.00  0.00    -0.350 N 
ATOM     32  C   UNL     1      22.861   1.075  52.442  1.00  0.00     0.011 A 
ATOM     33  C   UNL     1      25.107   0.341  52.916  1.00  0.00     0.048 A 
ATOM     34  C   UNL     1      22.380   0.149  53.378  1.00  0.00     0.001 A 
ATOM     35  C   UNL     1      24.635  -0.596  53.853  1.00  0.00     0.027 A 
ATOM     36  C   UNL     1      23.258  -0.670  54.079  1.00  0.00     0.002 A 
ATOM     37  C   UNL     1      27.577  -0.080  52.948  1.00  0.00     0.149 C 
ENDBRANCH  26  28
ENDBRANCH  20  22
ENDBRANCH   3  20
BRANCH   4  38
ATOM     38  O   UNL     1      26.039   8.543  48.262  1.00  0.00    -0.494 OA
ATOM     39  C   UNL     1      26.372   9.711  49.024  1.00  0.00     0.278 C 
ENDBRANCH   4  38
TORSDOF 10
ENDMDL
MODEL 14
REMARK minimizedAffinity -8.03543949
REMARK minimizedRMSD -1
REMARK SMILES C=CC(=O)Nc1cc(Nc2nccc(-c3cn(C)c4ccccc34)n2)c(OC)cc1N(C)CCN(C)C
REMARK SMILES IDX 6 1 7 2 8 3 26 4 29 5 30 6 5 7 3 8 4 9 2 11 1 12 31 13 32 14
REMARK SMILES IDX 33 15 34 16 35 17 36 18 37 19 9 20 10 22 11 23 25 24 12 25
REMARK SMILES IDX 14 26 13 27 15 28 16 29 24 30 17 31 23 32 19 33 22 34 20 35
REMARK SMILES IDX 21 36 18 37 27 38 28 39
REMARK H PARENT 5 10 9 21
ROOT
ATOM      1  C   UNL     1      25.099   6.670  48.697  1.00  0.00     0.067 A 
ATOM      2  C   UNL     1      25.271   5.345  49.150  1.00  0.00     0.058 A 
ATOM      3  C   UNL     1      26.519   4.722  49.129  1.00  0.00     0.086 A 
ATOM      4  C   UNL     1      27.593   5.448  48.595  1.00  0.00     0.144 A 
ATOM      5  C   UNL     1      27.447   6.752  48.122  1.00  0.00     0.076 A 
ATOM      6  C   UNL     1      26.188   7.377  48.127  1.00  0.00     0.064 A 
ENDROOT
BRANCH   1   7
ATOM      7  N   UNL     1      23.785   7.190  48.809  1.00  0.00    -0.321 N 
ATOM      8  C   UNL     1      23.252   7.866  49.891  1.00  0.00     0.247 C 
ATOM      9  O   UNL     1      23.718   8.002  51.016  1.00  0.00    -0.270 OA
ATOM     10  H   UNL     1      23.127   6.848  48.120  1.00  0.00     0.170 HD
BRANCH   8  11
ATOM     11  C   UNL     1      21.888   8.393  49.567  1.00  0.00     0.064 C 
ATOM     12  C   UNL     1      20.927   7.587  49.102  1.00  0.00     0.014 C 
ENDBRANCH   8  11
ENDBRANCH   1   7
BRANCH   6  13
ATOM     13  N   UNL     1      25.984   8.596  47.437  1.00  0.00    -0.372 N 
ATOM     14  C   UNL     1      26.076   9.806  48.266  1.00  0.00     0.143 C 
BRANCH  13  15
ATOM     15  C   UNL     1      26.731   8.624  46.161  1.00  0.00     0.131 C 
BRANCH  15  16
ATOM     16  C   UNL     1      27.597   9.899  46.044  1.00  0.00     0.105 C 
BRANCH  16  17
ATOM     17  N   UNL     1      29.051   9.625  45.942  1.00  0.00    -0.308 NA
ATOM     18  C   UNL     1      29.266   8.349  45.243  1.00  0.00     0.105 C 
ATOM     19  C   UNL     1      29.679   9.569  47.268  1.00  0.00     0.105 C 
ENDBRANCH  16  17
ENDBRANCH  15  16
ENDBRANCH  13  15
ENDBRANCH   6  13
BRANCH   3  20
ATOM     20  N   UNL     1      26.727   3.413  49.586  1.00  0.00    -0.321 N 
ATOM     21  H   UNL     1      26.699   2.707  48.861  1.00  0.00     0.170 HD
BRANCH  20  22
ATOM     22  C   UNL     1      26.433   2.822  50.815  1.00  0.00     0.227 A 
ATOM     23  N   UNL     1      27.392   2.545  51.714  1.00  0.00    -0.221 NA
ATOM     24  N   UNL     1      25.126   2.620  51.038  1.00  0.00    -0.213 NA
ATOM     25  C   UNL     1      26.992   2.028  52.892  1.00  0.00     0.117 A 
ATOM     26  C   UNL     1      24.756   2.095  52.229  1.00  0.00     0.078 A 
ATOM     27  C   UNL     1      25.677   1.773  53.199  1.00  0.00     0.049 A 
BRANCH  26  28
ATOM     28  C   UNL     1      23.316   1.896  52.402  1.00  0.00     0.026 A 
ATOM     29  C   UNL     1      22.821   0.764  53.027  1.00  0.00     0.096 A 
ATOM     30  C   UNL     1      22.169   2.679  52.013  1.00  0.00     0.009 A 
ATOM     31  N   UNL     1      21.462   0.843  53.072  1.00  0.00    -0.350 N 
ATOM     32  C   UNL     1      21.967   3.894  51.311  1.00  0.00     0.011 A 
ATOM     33  C   UNL     1      21.027   2.001  52.470  1.00  0.00     0.048 A 
ATOM     34  C   UNL     1      20.673   4.400  51.126  1.00  0.00     0.001 A 
ATOM     35  C   UNL     1      19.724   2.497  52.284  1.00  0.00     0.027 A 
ATOM     36  C   UNL     1      19.567   3.713  51.614  1.00  0.00     0.002 A 
ATOM     37  C   UNL     1      20.603  -0.170  53.647  1.00  0.00     0.149 C 
ENDBRANCH  26  28
ENDBRANCH  20  22
ENDBRANCH   3  20
BRANCH   4  38
ATOM     38  O   UNL     1      28.827   4.848  48.525  1.00  0.00    -0.494 OA
ATOM     39  C   UNL     1      29.786   5.756  47.967  1.00  0.00     0.278 C 
ENDBRANCH   4  38
TORSDOF 10
ENDMDL
MODEL 15
REMARK minimizedAffinity -8.02982235
REMARK minimizedRMSD -1
REMARK SMILES C=CC(=O)Nc1cc(Nc2nccc(-c3cn(C)c4ccccc34)n2)c(OC)cc1N(C)CCN(C)C
REMARK SMILES IDX 6 1 7 2 8 3 26 4 29 5 30 6 5 7 3 8 4 9 2 11 1 12 31 13 32 14
REMARK SMILES IDX 33 15 34 16 35 17 36 18 37 19 9 20 10 22 11 23 25 24 12 25
REMARK SMILES IDX 14 26 13 27 15 28 16 29 24 30 17 31 23 32 19 33 22 34 20 35
REMARK SMILES IDX 21 36 18 37 27 38 28 39
REMARK H PARENT 5 10 9 21
ROOT
ATOM      1  C   UNL     1      26.227   7.384  49.160  1.00  0.00     0.067 A 
ATOM      2  C   UNL     1      25.469   6.796  50.195  1.00  0.00     0.058 A 
ATOM      3  C   UNL     1      24.166   7.209  50.473  1.00  0.00     0.086 A 
ATOM      4  C   UNL     1      23.649   8.268  49.712  1.00  0.00     0.144 A 
ATOM      5  C   UNL     1      24.383   8.880  48.696  1.00  0.00     0.076 A 
ATOM      6  C   UNL     1      25.702   8.477  48.424  1.00  0.00     0.064 A 
ENDROOT
BRANCH   1   7
ATOM      7  N   UNL     1      27.521   6.843  48.965  1.00  0.00    -0.321 N 
ATOM      8  C   UNL     1      27.831   5.543  48.608  1.00  0.00     0.247 C 
ATOM      9  O   UNL     1      27.094   4.565  48.559  1.00  0.00    -0.270 OA
ATOM     10  H   UNL     1      28.282   7.406  49.324  1.00  0.00     0.170 HD
BRANCH   8  11
ATOM     11  C   UNL     1      29.298   5.400  48.344  1.00  0.00     0.064 C 
ATOM     12  C   UNL     1      30.096   6.472  48.280  1.00  0.00     0.014 C 
ENDBRANCH   8  11
ENDBRANCH   1   7
BRANCH   6  13
ATOM     13  N   UNL     1      26.529   9.242  47.568  1.00  0.00    -0.372 N 
ATOM     14  C   UNL     1      25.830   9.927  46.471  1.00  0.00     0.143 C 
BRANCH  13  15
ATOM     15  C   UNL     1      27.489  10.063  48.338  1.00  0.00     0.131 C 
BRANCH  15  16
ATOM     16  C   UNL     1      28.683  10.504  47.463  1.00  0.00     0.105 C 
BRANCH  16  17
ATOM     17  N   UNL     1      29.816  11.065  48.239  1.00  0.00    -0.308 NA
ATOM     18  C   UNL     1      30.189  10.133  49.314  1.00  0.00     0.105 C 
ATOM     19  C   UNL     1      29.472  12.370  48.819  1.00  0.00     0.105 C 
ENDBRANCH  16  17
ENDBRANCH  15  16
ENDBRANCH  13  15
ENDBRANCH   6  13
BRANCH   3  20
ATOM     20  N   UNL     1      23.382   6.636  51.482  1.00  0.00    -0.321 N 
ATOM     21  H   UNL     1      23.755   6.746  52.416  1.00  0.00     0.170 HD
BRANCH  20  22
ATOM     22  C   UNL     1      22.532   5.529  51.456  1.00  0.00     0.227 A 
ATOM     23  N   UNL     1      21.291   5.603  50.946  1.00  0.00    -0.221 NA
ATOM     24  N   UNL     1      23.080   4.394  51.914  1.00  0.00    -0.213 NA
ATOM     25  C   UNL     1      20.576   4.461  50.916  1.00  0.00     0.117 A 
ATOM     26  C   UNL     1      22.334   3.265  51.875  1.00  0.00     0.078 A 
ATOM     27  C   UNL     1      21.051   3.258  51.380  1.00  0.00     0.049 A 
BRANCH  26  28
ATOM     28  C   UNL     1      22.992   2.066  52.397  1.00  0.00     0.026 A 
ATOM     29  C   UNL     1      24.310   1.780  52.083  1.00  0.00     0.096 A 
ATOM     30  C   UNL     1      22.533   0.988  53.238  1.00  0.00     0.009 A 
ATOM     31  N   UNL     1      24.674   0.628  52.713  1.00  0.00    -0.350 N 
ATOM     32  C   UNL     1      21.303   0.642  53.854  1.00  0.00     0.011 A 
ATOM     33  C   UNL     1      23.618   0.119  53.433  1.00  0.00     0.048 A 
ATOM     34  C   UNL     1      21.209  -0.504  54.656  1.00  0.00     0.001 A 
ATOM     35  C   UNL     1      23.532  -1.037  54.230  1.00  0.00     0.027 A 
ATOM     36  C   UNL     1      22.312  -1.328  54.846  1.00  0.00     0.002 A 
ATOM     37  C   UNL     1      25.981   0.016  52.606  1.00  0.00     0.149 C 
ENDBRANCH  26  28
ENDBRANCH  20  22
ENDBRANCH   3  20
BRANCH   4  38
ATOM     38  O   UNL     1      22.383   8.723  49.987  1.00  0.00    -0.494 OA
ATOM     39  C   UNL     1      21.549   8.593  48.828  1.00  0.00     0.278 C 
ENDBRANCH   4  38
TORSDOF 10
ENDMDL
MODEL 16
REMARK minimizedAffinity -8.00650024
REMARK minimizedRMSD -1
REMARK SMILES C=CC(=O)Nc1cc(Nc2nccc(-c3cn(C)c4ccccc34)n2)c(OC)cc1N(C)CCN(C)C
REMARK SMILES IDX 6 1 7 2 8 3 26 4 29 5 30 6 5 7 3 8 4 9 2 11 1 12 31 13 32 14
REMARK SMILES IDX 33 15 34 16 35 17 36 18 37 19 9 20 10 22 11 23 25 24 12 25
REMARK SMILES IDX 14 26 13 27 15 28 16 29 24 30 17 31 23 32 19 33 22 34 20 35
REMARK SMILES IDX 21 36 18 37 27 38 28 39
REMARK H PARENT 5 10 9 21
ROOT
ATOM      1  C   UNL     1      26.592   2.287  51.544  1.00  0.00     0.067 A 
ATOM      2  C   UNL     1      26.986   3.075  50.441  1.00  0.00     0.058 A 
ATOM      3  C   UNL     1      26.091   3.925  49.793  1.00  0.00     0.086 A 
ATOM      4  C   UNL     1      24.765   3.934  50.249  1.00  0.00     0.144 A 
ATOM      5  C   UNL     1      24.343   3.152  51.324  1.00  0.00     0.076 A 
ATOM      6  C   UNL     1      25.239   2.282  51.969  1.00  0.00     0.064 A 
ENDROOT
BRANCH   1   7
ATOM      7  N   UNL     1      27.612   1.498  52.128  1.00  0.00    -0.321 N 
ATOM      8  C   UNL     1      28.297   1.764  53.301  1.00  0.00     0.247 C 
ATOM      9  O   UNL     1      28.299   2.789  53.971  1.00  0.00    -0.270 OA
ATOM     10  H   UNL     1      28.012   0.793  51.522  1.00  0.00     0.170 HD
BRANCH   8  11
ATOM     11  C   UNL     1      29.184   0.615  53.669  1.00  0.00     0.064 C 
ATOM     12  C   UNL     1      28.704  -0.630  53.754  1.00  0.00     0.014 C 
ENDBRANCH   8  11
ENDBRANCH   1   7
BRANCH   6  13
ATOM     13  N   UNL     1      24.771   1.318  52.894  1.00  0.00    -0.372 N 
ATOM     14  C   UNL     1      24.919   1.686  54.309  1.00  0.00     0.143 C 
BRANCH  13  15
ATOM     15  C   UNL     1      23.449   0.788  52.496  1.00  0.00     0.131 C 
BRANCH  15  16
ATOM     16  C   UNL     1      23.060  -0.447  53.340  1.00  0.00     0.105 C 
BRANCH  16  17
ATOM     17  N   UNL     1      21.595  -0.665  53.435  1.00  0.00    -0.308 NA
ATOM     18  C   UNL     1      20.945   0.554  53.942  1.00  0.00     0.105 C 
ATOM     19  C   UNL     1      21.279  -1.793  54.320  1.00  0.00     0.105 C 
ENDBRANCH  16  17
ENDBRANCH  15  16
ENDBRANCH  13  15
ENDBRANCH   6  13
BRANCH   3  20
ATOM     20  N   UNL     1      26.454   4.732  48.705  1.00  0.00    -0.321 N 
ATOM     21  H   UNL     1      26.355   4.286  47.802  1.00  0.00     0.170 HD
BRANCH  20  22
ATOM     22  C   UNL     1      27.391   5.761  48.610  1.00  0.00     0.227 A 
ATOM     23  N   UNL     1      27.057   7.044  48.829  1.00  0.00    -0.221 NA
ATOM     24  N   UNL     1      28.642   5.353  48.351  1.00  0.00    -0.213 NA
ATOM     25  C   UNL     1      28.052   7.950  48.768  1.00  0.00     0.117 A 
ATOM     26  C   UNL     1      29.618   6.289  48.292  1.00  0.00     0.078 A 
ATOM     27  C   UNL     1      29.358   7.624  48.492  1.00  0.00     0.049 A 
BRANCH  26  28
ATOM     28  C   UNL     1      30.957   5.774  47.998  1.00  0.00     0.026 A 
ATOM     29  C   UNL     1      31.135   4.511  47.461  1.00  0.00     0.096 A 
ATOM     30  C   UNL     1      32.277   6.329  48.175  1.00  0.00     0.009 A 
ATOM     31  N   UNL     1      32.467   4.296  47.270  1.00  0.00    -0.350 N 
ATOM     32  C   UNL     1      32.802   7.534  48.708  1.00  0.00     0.011 A 
ATOM     33  C   UNL     1      33.195   5.386  47.687  1.00  0.00     0.048 A 
ATOM     34  C   UNL     1      34.184   7.770  48.700  1.00  0.00     0.001 A 
ATOM     35  C   UNL     1      34.583   5.610  47.680  1.00  0.00     0.027 A 
ATOM     36  C   UNL     1      35.061   6.822  48.186  1.00  0.00     0.002 A 
ATOM     37  C   UNL     1      33.029   3.075  46.733  1.00  0.00     0.149 C 
ENDBRANCH  26  28
ENDBRANCH  20  22
ENDBRANCH   3  20
BRANCH   4  38
ATOM     38  O   UNL     1      23.850   4.732  49.606  1.00  0.00    -0.494 OA
ATOM     39  C   UNL     1      23.025   3.939  48.742  1.00  0.00     0.278 C 
ENDBRANCH   4  38
TORSDOF 10
ENDMDL
MODEL 17
REMARK minimizedAffinity -7.98794031
REMARK minimizedRMSD -1
REMARK SMILES C=CC(=O)Nc1cc(Nc2nccc(-c3cn(C)c4ccccc34)n2)c(OC)cc1N(C)CCN(C)C
REMARK SMILES IDX 6 1 7 2 8 3 26 4 29 5 30 6 5 7 3 8 4 9 2 11 1 12 31 13 32 14
REMARK SMILES IDX 33 15 34 16 35 17 36 18 37 19 9 20 10 22 11 23 25 24 12 25
REMARK SMILES IDX 14 26 13 27 15 28 16 29 24 30 17 31 23 32 19 33 22 34 20 35
REMARK SMILES IDX 21 36 18 37 27 38 28 39
REMARK H PARENT 5 10 9 21
ROOT
ATOM      1  C   UNL     1      24.421   5.889  49.027  1.00  0.00     0.067 A 
ATOM      2  C   UNL     1      24.845   4.621  49.480  1.00  0.00     0.058 A 
ATOM      3  C   UNL     1      26.180   4.226  49.398  1.00  0.00     0.086 A 
ATOM      4  C   UNL     1      27.083   5.121  48.805  1.00  0.00     0.144 A 
ATOM      5  C   UNL     1      26.687   6.371  48.332  1.00  0.00     0.076 A 
ATOM      6  C   UNL     1      25.339   6.767  48.398  1.00  0.00     0.064 A 
ENDROOT
BRANCH   1   7
ATOM      7  N   UNL     1      23.044   6.172  49.204  1.00  0.00    -0.321 N 
ATOM      8  C   UNL     1      22.379   6.333  50.406  1.00  0.00     0.247 C 
ATOM      9  O   UNL     1      22.778   6.099  51.540  1.00  0.00    -0.270 OA
ATOM     10  H   UNL     1      22.467   6.035  48.383  1.00  0.00     0.170 HD
BRANCH   8  11
ATOM     11  C   UNL     1      20.968   6.780  50.175  1.00  0.00     0.064 C 
ATOM     12  C   UNL     1      20.698   8.002  49.704  1.00  0.00     0.014 C 
ENDBRANCH   8  11
ENDBRANCH   1   7
BRANCH   6  13
ATOM     13  N   UNL     1      24.890   7.920  47.711  1.00  0.00    -0.372 N 
ATOM     14  C   UNL     1      23.817   7.687  46.734  1.00  0.00     0.143 C 
BRANCH  13  15
ATOM     15  C   UNL     1      24.690   9.055  48.639  1.00  0.00     0.131 C 
BRANCH  15  16
ATOM     16  C   UNL     1      25.615  10.241  48.286  1.00  0.00     0.105 C 
BRANCH  16  17
ATOM     17  N   UNL     1      26.789  10.369  49.184  1.00  0.00    -0.308 NA
ATOM     18  C   UNL     1      28.017  10.044  48.442  1.00  0.00     0.105 C 
ATOM     19  C   UNL     1      26.670   9.482  50.348  1.00  0.00     0.105 C 
ENDBRANCH  16  17
ENDBRANCH  15  16
ENDBRANCH  13  15
ENDBRANCH   6  13
BRANCH   3  20
ATOM     20  N   UNL     1      26.638   2.982  49.853  1.00  0.00    -0.321 N 
ATOM     21  H   UNL     1      26.708   2.273  49.134  1.00  0.00     0.170 HD
BRANCH  20  22
ATOM     22  C   UNL     1      26.503   2.362  51.096  1.00  0.00     0.227 A 
ATOM     23  N   UNL     1      27.487   2.391  52.010  1.00  0.00    -0.221 NA
ATOM     24  N   UNL     1      25.304   1.804  51.314  1.00  0.00    -0.213 NA
ATOM     25  C   UNL     1      27.230   1.812  53.199  1.00  0.00     0.117 A 
ATOM     26  C   UNL     1      25.079   1.225  52.516  1.00  0.00     0.078 A 
ATOM     27  C   UNL     1      26.037   1.202  53.502  1.00  0.00     0.049 A 
BRANCH  26  28
ATOM     28  C   UNL     1      23.751   0.630  52.682  1.00  0.00     0.026 A 
ATOM     29  C   UNL     1      23.501  -0.289  53.686  1.00  0.00     0.096 A 
ATOM     30  C   UNL     1      22.516   0.780  51.953  1.00  0.00     0.009 A 
ATOM     31  N   UNL     1      22.192  -0.663  53.627  1.00  0.00    -0.350 N 
ATOM     32  C   UNL     1      22.101   1.509  50.809  1.00  0.00     0.011 A 
ATOM     33  C   UNL     1      21.556  -0.026  52.587  1.00  0.00     0.048 A 
ATOM     34  C   UNL     1      20.771   1.444  50.371  1.00  0.00     0.001 A 
ATOM     35  C   UNL     1      20.221  -0.102  52.151  1.00  0.00     0.027 A 
ATOM     36  C   UNL     1      19.843   0.655  51.039  1.00  0.00     0.002 A 
ATOM     37  C   UNL     1      21.574  -1.621  54.519  1.00  0.00     0.149 C 
ENDBRANCH  26  28
ENDBRANCH  20  22
ENDBRANCH   3  20
BRANCH   4  38
ATOM     38  O   UNL     1      28.398   4.745  48.675  1.00  0.00    -0.494 OA
ATOM     39  C   UNL     1      29.183   5.850  48.208  1.00  0.00     0.278 C 
ENDBRANCH   4  38
TORSDOF 10
ENDMDL
MODEL 18
REMARK minimizedAffinity -7.972507
REMARK minimizedRMSD -1
REMARK SMILES C=CC(=O)Nc1cc(Nc2nccc(-c3cn(C)c4ccccc34)n2)c(OC)cc1N(C)CCN(C)C
REMARK SMILES IDX 6 1 7 2 8 3 26 4 29 5 30 6 5 7 3 8 4 9 2 11 1 12 31 13 32 14
REMARK SMILES IDX 33 15 34 16 35 17 36 18 37 19 9 20 10 22 11 23 25 24 12 25
REMARK SMILES IDX 14 26 13 27 15 28 16 29 24 30 17 31 23 32 19 33 22 34 20 35
REMARK SMILES IDX 21 36 18 37 27 38 28 39
REMARK H PARENT 5 10 9 21
ROOT
ATOM      1  C   UNL     1      27.301   7.778  48.214  1.00  0.00     0.067 A 
ATOM      2  C   UNL     1      26.897   6.692  49.021  1.00  0.00     0.058 A 
ATOM      3  C   UNL     1      25.760   6.764  49.826  1.00  0.00     0.086 A 
ATOM      4  C   UNL     1      25.056   7.977  49.841  1.00  0.00     0.144 A 
ATOM      5  C   UNL     1      25.444   9.071  49.069  1.00  0.00     0.076 A 
ATOM      6  C   UNL     1      26.598   9.008  48.269  1.00  0.00     0.064 A 
ENDROOT
BRANCH   1   7
ATOM      7  N   UNL     1      28.453   7.554  47.420  1.00  0.00    -0.321 N 
ATOM      8  C   UNL     1      29.772   7.679  47.819  1.00  0.00     0.247 C 
ATOM      9  O   UNL     1      30.217   8.164  48.852  1.00  0.00    -0.270 OA
ATOM     10  H   UNL     1      28.285   7.505  46.423  1.00  0.00     0.170 HD
BRANCH   8  11
ATOM     11  C   UNL     1      30.698   7.204  46.742  1.00  0.00     0.064 C 
ATOM     12  C   UNL     1      31.665   6.318  47.003  1.00  0.00     0.014 C 
ENDBRANCH   8  11
ENDBRANCH   1   7
BRANCH   6  13
ATOM     13  N   UNL     1      27.130  10.177  47.674  1.00  0.00    -0.372 N 
ATOM     14  C   UNL     1      26.280  10.799  46.649  1.00  0.00     0.143 C 
BRANCH  13  15
ATOM     15  C   UNL     1      27.693  11.090  48.692  1.00  0.00     0.131 C 
BRANCH  15  16
ATOM     16  C   UNL     1      28.722  12.061  48.070  1.00  0.00     0.105 C 
BRANCH  16  17
ATOM     17  N   UNL     1      29.982  11.403  47.646  1.00  0.00    -0.308 NA
ATOM     18  C   UNL     1      31.056  11.732  48.595  1.00  0.00     0.105 C 
ATOM     19  C   UNL     1      30.376  11.821  46.295  1.00  0.00     0.105 C 
ENDBRANCH  16  17
ENDBRANCH  15  16
ENDBRANCH  13  15
ENDBRANCH   6  13
BRANCH   3  20
ATOM     20  N   UNL     1      25.323   5.700  50.627  1.00  0.00    -0.321 N 
ATOM     21  H   UNL     1      25.983   5.411  51.337  1.00  0.00     0.170 HD
BRANCH  20  22
ATOM     22  C   UNL     1      24.466   4.637  50.337  1.00  0.00     0.227 A 
ATOM     23  N   UNL     1      23.699   4.628  49.233  1.00  0.00    -0.221 NA
ATOM     24  N   UNL     1      24.527   3.618  51.207  1.00  0.00    -0.213 NA
ATOM     25  C   UNL     1      22.953   3.527  49.020  1.00  0.00     0.117 A 
ATOM     26  C   UNL     1      23.761   2.529  50.967  1.00  0.00     0.078 A 
ATOM     27  C   UNL     1      22.940   2.445  49.867  1.00  0.00     0.049 A 
BRANCH  26  28
ATOM     28  C   UNL     1      23.871   1.459  51.960  1.00  0.00     0.026 A 
ATOM     29  C   UNL     1      25.080   0.830  52.201  1.00  0.00     0.096 A 
ATOM     30  C   UNL     1      22.906   0.828  52.827  1.00  0.00     0.009 A 
ATOM     31  N   UNL     1      24.906  -0.103  53.179  1.00  0.00    -0.350 N 
ATOM     32  C   UNL     1      21.511   0.954  53.045  1.00  0.00     0.011 A 
ATOM     33  C   UNL     1      23.594  -0.128  53.591  1.00  0.00     0.048 A 
ATOM     34  C   UNL     1      20.871   0.174  54.019  1.00  0.00     0.001 A 
ATOM     35  C   UNL     1      22.961  -0.920  54.566  1.00  0.00     0.027 A 
ATOM     36  C   UNL     1      21.590  -0.745  54.774  1.00  0.00     0.002 A 
ATOM     37  C   UNL     1      25.954  -0.964  53.684  1.00  0.00     0.149 C 
ENDBRANCH  26  28
ENDBRANCH  20  22
ENDBRANCH   3  20
BRANCH   4  38
ATOM     38  O   UNL     1      23.954   8.091  50.654  1.00  0.00    -0.494 OA
ATOM     39  C   UNL     1      22.766   8.212  49.860  1.00  0.00     0.278 C 
ENDBRANCH   4  38
TORSDOF 10
ENDMDL
MODEL 19
REMARK minimizedAffinity -7.92401695
REMARK minimizedRMSD -1
REMARK SMILES C=CC(=O)Nc1cc(Nc2nccc(-c3cn(C)c4ccccc34)n2)c(OC)cc1N(C)CCN(C)C
REMARK SMILES IDX 6 1 7 2 8 3 26 4 29 5 30 6 5 7 3 8 4 9 2 11 1 12 31 13 32 14
REMARK SMILES IDX 33 15 34 16 35 17 36 18 37 19 9 20 10 22 11 23 25 24 12 25
REMARK SMILES IDX 14 26 13 27 15 28 16 29 24 30 17 31 23 32 19 33 22 34 20 35
REMARK SMILES IDX 21 36 18 37 27 38 28 39
REMARK H PARENT 5 10 9 21
ROOT
ATOM      1  C   UNL     1      27.900   8.209  47.787  1.00  0.00     0.067 A 
ATOM      2  C   UNL     1      27.369   6.972  48.211  1.00  0.00     0.058 A 
ATOM      3  C   UNL     1      28.170   5.837  48.333  1.00  0.00     0.086 A 
ATOM      4  C   UNL     1      29.520   5.958  47.973  1.00  0.00     0.144 A 
ATOM      5  C   UNL     1      30.066   7.163  47.533  1.00  0.00     0.076 A 
ATOM      6  C   UNL     1      29.259   8.305  47.393  1.00  0.00     0.064 A 
ENDROOT
BRANCH   1   7
ATOM      7  N   UNL     1      26.981   9.287  47.743  1.00  0.00    -0.321 N 
ATOM      8  C   UNL     1      26.654  10.140  48.782  1.00  0.00     0.247 C 
ATOM      9  O   UNL     1      26.938  10.045  49.969  1.00  0.00    -0.270 OA
ATOM     10  H   UNL     1      26.363   9.293  46.941  1.00  0.00     0.170 HD
BRANCH   8  11
ATOM     11  C   UNL     1      25.767  11.246  48.300  1.00  0.00     0.064 C 
ATOM     12  C   UNL     1      26.255  12.255  47.569  1.00  0.00     0.014 C 
ENDBRANCH   8  11
ENDBRANCH   1   7
BRANCH   6  13
ATOM     13  N   UNL     1      29.744   9.456  46.727  1.00  0.00    -0.372 N 
ATOM     14  C   UNL     1      30.710  10.259  47.490  1.00  0.00     0.143 C 
BRANCH  13  15
ATOM     15  C   UNL     1      30.113   9.152  45.327  1.00  0.00     0.131 C 
BRANCH  15  16
ATOM     16  C   UNL     1      28.984   9.544  44.348  1.00  0.00     0.105 C 
BRANCH  16  17
ATOM     17  N   UNL     1      28.060  10.573  44.886  1.00  0.00    -0.308 NA
ATOM     18  C   UNL     1      26.696  10.317  44.399  1.00  0.00     0.105 C 
ATOM     19  C   UNL     1      28.476  11.925  44.490  1.00  0.00     0.105 C 
ENDBRANCH  16  17
ENDBRANCH  15  16
ENDBRANCH  13  15
ENDBRANCH   6  13
BRANCH   3  20
ATOM     20  N   UNL     1      27.678   4.598  48.767  1.00  0.00    -0.321 N 
ATOM     21  H   UNL     1      27.962   3.812  48.196  1.00  0.00     0.170 HD
BRANCH  20  22
ATOM     22  C   UNL     1      26.501   4.273  49.442  1.00  0.00     0.227 A 
ATOM     23  N   UNL     1      25.313   4.782  49.077  1.00  0.00    -0.221 NA
ATOM     24  N   UNL     1      26.652   3.374  50.426  1.00  0.00    -0.213 NA
ATOM     25  C   UNL     1      24.232   4.357  49.760  1.00  0.00     0.117 A 
ATOM     26  C   UNL     1      25.548   2.971  51.097  1.00  0.00     0.078 A 
ATOM     27  C   UNL     1      24.297   3.453  50.792  1.00  0.00     0.049 A 
BRANCH  26  28
ATOM     28  C   UNL     1      25.788   1.995  52.161  1.00  0.00     0.026 A 
ATOM     29  C   UNL     1      24.800   1.109  52.553  1.00  0.00     0.096 A 
ATOM     30  C   UNL     1      26.931   1.726  52.999  1.00  0.00     0.009 A 
ATOM     31  N   UNL     1      25.292   0.306  53.538  1.00  0.00    -0.350 N 
ATOM     32  C   UNL     1      28.224   2.287  53.154  1.00  0.00     0.011 A 
ATOM     33  C   UNL     1      26.592   0.647  53.832  1.00  0.00     0.048 A 
ATOM     34  C   UNL     1      29.127   1.744  54.079  1.00  0.00     0.001 A 
ATOM     35  C   UNL     1      27.488   0.099  54.768  1.00  0.00     0.027 A 
ATOM     36  C   UNL     1      28.764   0.659  54.869  1.00  0.00     0.002 A 
ATOM     37  C   UNL     1      24.535  -0.736  54.198  1.00  0.00     0.149 C 
ENDBRANCH  26  28
ENDBRANCH  20  22
ENDBRANCH   3  20
BRANCH   4  38
ATOM     38  O   UNL     1      30.325   4.848  48.046  1.00  0.00    -0.494 OA
ATOM     39  C   UNL     1      31.684   5.205  47.759  1.00  0.00     0.278 C 
ENDBRANCH   4  38
TORSDOF 10
ENDMDL
MODEL 20
REMARK minimizedAffinity -7.88308477
REMARK minimizedRMSD -1
REMARK SMILES C=CC(=O)Nc1cc(Nc2nccc(-c3cn(C)c4ccccc34)n2)c(OC)cc1N(C)CCN(C)C
REMARK SMILES IDX 6 1 7 2 8 3 26 4 29 5 30 6 5 7 3 8 4 9 2 11 1 12 31 13 32 14
REMARK SMILES IDX 33 15 34 16 35 17 36 18 37 19 9 20 10 22 11 23 25 24 12 25
REMARK SMILES IDX 14 26 13 27 15 28 16 29 24 30 17 31 23 32 19 33 22 34 20 35
REMARK SMILES IDX 21 36 18 37 27 38 28 39
REMARK H PARENT 5 10 9 21
ROOT
ATOM      1  C   UNL     1      28.444   8.475  47.947  1.00  0.00     0.067 A 
ATOM      2  C   UNL     1      27.800   7.232  48.120  1.00  0.00     0.058 A 
ATOM      3  C   UNL     1      28.522   6.058  48.332  1.00  0.00     0.086 A 
ATOM      4  C   UNL     1      29.922   6.150  48.319  1.00  0.00     0.144 A 
ATOM      5  C   UNL     1      30.584   7.363  48.131  1.00  0.00     0.076 A 
ATOM      6  C   UNL     1      29.860   8.545  47.901  1.00  0.00     0.064 A 
ENDROOT
BRANCH   1   7
ATOM      7  N   UNL     1      27.587   9.591  47.777  1.00  0.00    -0.321 N 
ATOM      8  C   UNL     1      27.063  10.393  48.776  1.00  0.00     0.247 C 
ATOM      9  O   UNL     1      27.078  10.215  49.988  1.00  0.00    -0.270 OA
ATOM     10  H   UNL     1      27.160   9.671  46.863  1.00  0.00     0.170 HD
BRANCH   8  11
ATOM     11  C   UNL     1      26.334  11.561  48.189  1.00  0.00     0.064 C 
ATOM     12  C   UNL     1      26.880  12.783  48.178  1.00  0.00     0.014 C 
ENDBRANCH   8  11
ENDBRANCH   1   7
BRANCH   6  13
ATOM     13  N   UNL     1      30.517   9.724  47.475  1.00  0.00    -0.372 N 
ATOM     14  C   UNL     1      30.734  10.733  48.522  1.00  0.00     0.143 C 
BRANCH  13  15
ATOM     15  C   UNL     1      31.684   9.412  46.622  1.00  0.00     0.131 C 
BRANCH  15  16
ATOM     16  C   UNL     1      31.738  10.331  45.381  1.00  0.00     0.105 C 
BRANCH  16  17
ATOM     17  N   UNL     1      31.920   9.598  44.104  1.00  0.00    -0.308 NA
ATOM     18  C   UNL     1      31.474   8.206  44.265  1.00  0.00     0.105 C 
ATOM     19  C   UNL     1      33.323   9.616  43.673  1.00  0.00     0.105 C 
ENDBRANCH  16  17
ENDBRANCH  15  16
ENDBRANCH  13  15
ENDBRANCH   6  13
BRANCH   3  20
ATOM     20  N   UNL     1      27.913   4.810  48.523  1.00  0.00    -0.321 N 
ATOM     21  H   UNL     1      28.075   4.146  47.777  1.00  0.00     0.170 HD
BRANCH  20  22
ATOM     22  C   UNL     1      26.743   4.464  49.200  1.00  0.00     0.227 A 
ATOM     23  N   UNL     1      25.550   4.977  48.855  1.00  0.00    -0.221 NA
ATOM     24  N   UNL     1      26.905   3.543  50.161  1.00  0.00    -0.213 NA
ATOM     25  C   UNL     1      24.476   4.531  49.535  1.00  0.00     0.117 A 
ATOM     26  C   UNL     1      25.808   3.119  50.829  1.00  0.00     0.078 A 
ATOM     27  C   UNL     1      24.552   3.603  50.546  1.00  0.00     0.049 A 
BRANCH  26  28
ATOM     28  C   UNL     1      26.059   2.119  51.869  1.00  0.00     0.026 A 
ATOM     29  C   UNL     1      27.336   1.904  52.359  1.00  0.00     0.096 A 
ATOM     30  C   UNL     1      25.198   1.193  52.562  1.00  0.00     0.009 A 
ATOM     31  N   UNL     1      27.283   0.943  53.324  1.00  0.00    -0.350 N 
ATOM     32  C   UNL     1      23.820   0.861  52.506  1.00  0.00     0.011 A 
ATOM     33  C   UNL     1      25.993   0.490  53.481  1.00  0.00     0.048 A 
ATOM     34  C   UNL     1      23.288  -0.104  53.371  1.00  0.00     0.001 A 
ATOM     35  C   UNL     1      25.470  -0.485  54.349  1.00  0.00     0.027 A 
ATOM     36  C   UNL     1      24.102  -0.762  54.286  1.00  0.00     0.002 A 
ATOM     37  C   UNL     1      28.433   0.452  54.053  1.00  0.00     0.149 C 
ENDBRANCH  26  28
ENDBRANCH  20  22
ENDBRANCH   3  20
BRANCH   4  38
ATOM     38  O   UNL     1      30.661   5.005  48.486  1.00  0.00    -0.494 OA
ATOM     39  C   UNL     1      32.057   5.326  48.562  1.00  0.00     0.278 C 
ENDBRANCH   4  38
TORSDOF 10
ENDMDL
