MODEL 1
REMARK minimizedAffinity -8.79530811
REMARK minimizedRMSD -1
REMARK SMILES CCCS(=O)(=O)Nc1ccc(F)c(C(=O)c2c[nH]c3ncc(Cl)cc23)c1F
REMARK SMILES IDX 7 1 4 3 5 4 6 5 3 6 2 7 1 8 8 9 9 10 26 11 10 12 13 13 11 14
REMARK SMILES IDX 27 15 12 16 14 17 15 18 16 19 17 20 25 21 18 22 24 23 19 24
REMARK SMILES IDX 22 25 20 26 21 27 23 29
REMARK H PARENT 7 2 18 28
ROOT
ATOM      1  N   UNL     1      26.890  -0.049  52.785  1.00  0.00    -0.281 N 
ATOM      2  H   UNL     1      27.352  -0.051  51.868  1.00  0.00     0.180 HD
ENDROOT
BRANCH   1   3
ATOM      3  S   UNL     1      27.714   1.091  53.744  1.00  0.00     0.232 S 
ATOM      4  O   UNL     1      26.802   1.644  54.722  1.00  0.00    -0.207 OA
ATOM      5  O   UNL     1      28.427   1.940  52.815  1.00  0.00    -0.207 OA
BRANCH   3   6
ATOM      6  C   UNL     1      28.904   0.058  54.592  1.00  0.00     0.159 C 
BRANCH   6   7
ATOM      7  C   UNL     1      29.899  -0.607  53.650  1.00  0.00     0.015 C 
ATOM      8  C   UNL     1      29.509  -2.048  53.364  1.00  0.00     0.005 C 
ENDBRANCH   6   7
ENDBRANCH   3   6
ENDBRANCH   1   3
BRANCH   1   9
ATOM      9  C   UNL     1      25.473   0.143  52.702  1.00  0.00     0.085 A 
ATOM     10  C   UNL     1      24.635  -0.512  53.607  1.00  0.00     0.033 A 
ATOM     11  C   UNL     1      24.945   1.086  51.813  1.00  0.00     0.161 A 
ATOM     12  C   UNL     1      23.264  -0.240  53.601  1.00  0.00     0.042 A 
ATOM     13  C   UNL     1      23.586   1.372  51.827  1.00  0.00     0.096 A 
ATOM     14  C   UNL     1      22.747   0.702  52.711  1.00  0.00     0.137 A 
ATOM     15  F   UNL     1      25.770   1.710  50.958  1.00  0.00    -0.204 F 
ATOM     16  F   UNL     1      21.435   0.968  52.748  1.00  0.00    -0.206 F 
BRANCH  13  17
ATOM     17  C   UNL     1      23.031   2.364  50.909  1.00  0.00     0.201 C 
ATOM     18  O   UNL     1      22.488   1.956  49.886  1.00  0.00    -0.288 OA
BRANCH  17  19
ATOM     19  C   UNL     1      23.144   3.781  51.247  1.00  0.00     0.050 A 
ATOM     20  C   UNL     1      22.343   4.499  52.127  1.00  0.00     0.097 A 
ATOM     21  C   UNL     1      24.102   4.713  50.723  1.00  0.00     0.031 A 
ATOM     22  N   UNL     1      22.787   5.797  52.162  1.00  0.00    -0.345 N 
ATOM     23  C   UNL     1      25.170   4.650  49.806  1.00  0.00     0.035 A 
ATOM     24  C   UNL     1      23.847   5.946  51.315  1.00  0.00     0.138 A 
ATOM     25  C   UNL     1      25.883   5.822  49.564  1.00  0.00     0.060 A 
ATOM     26  N   UNL     1      24.500   7.106  51.118  1.00  0.00    -0.237 NA
ATOM     27  C   UNL     1      25.517   6.988  50.228  1.00  0.00     0.134 A 
ATOM     28  H   UNL     1      22.405   6.548  52.719  1.00  0.00     0.167 HD
ATOM     29  Cl  UNL     1      27.198   5.823  48.457  1.00  0.00    -0.083 Cl
ENDBRANCH  17  19
ENDBRANCH  13  17
ENDBRANCH   1   9
TORSDOF 6
ENDMDL
MODEL 2
REMARK minimizedAffinity -8.75725842
REMARK minimizedRMSD -1
REMARK SMILES CCCS(=O)(=O)Nc1ccc(F)c(C(=O)c2c[nH]c3ncc(Cl)cc23)c1F
REMARK SMILES IDX 7 1 4 3 5 4 6 5 3 6 2 7 1 8 8 9 9 10 26 11 10 12 13 13 11 14
REMARK SMILES IDX 27 15 12 16 14 17 15 18 16 19 17 20 25 21 18 22 24 23 19 24
REMARK SMILES IDX 22 25 20 26 21 27 23 29
REMARK H PARENT 7 2 18 28
ROOT
ATOM      1  N   UNL     1      27.017   0.714  52.337  1.00  0.00    -0.281 N 
ATOM      2  H   UNL     1      27.659   0.689  51.536  1.00  0.00     0.180 HD
ENDROOT
BRANCH   1   3
ATOM      3  S   UNL     1      27.789   1.623  53.552  1.00  0.00     0.232 S 
ATOM      4  O   UNL     1      26.791   2.215  54.416  1.00  0.00    -0.207 OA
ATOM      5  O   UNL     1      28.770   2.436  52.868  1.00  0.00    -0.207 OA
BRANCH   3   6
ATOM      6  C   UNL     1      28.651   0.347  54.465  1.00  0.00     0.159 C 
BRANCH   6   7
ATOM      7  C   UNL     1      29.790  -0.287  53.677  1.00  0.00     0.015 C 
ATOM      8  C   UNL     1      29.493  -1.743  53.356  1.00  0.00     0.005 C 
ENDBRANCH   6   7
ENDBRANCH   3   6
ENDBRANCH   1   3
BRANCH   1   9
ATOM      9  C   UNL     1      25.701   1.162  51.991  1.00  0.00     0.085 A 
ATOM     10  C   UNL     1      24.596   0.634  52.661  1.00  0.00     0.033 A 
ATOM     11  C   UNL     1      25.536   2.219  51.090  1.00  0.00     0.161 A 
ATOM     12  C   UNL     1      23.322   1.149  52.406  1.00  0.00     0.042 A 
ATOM     13  C   UNL     1      24.272   2.746  50.857  1.00  0.00     0.096 A 
ATOM     14  C   UNL     1      23.167   2.204  51.507  1.00  0.00     0.137 A 
ATOM     15  F   UNL     1      26.613   2.718  50.463  1.00  0.00    -0.204 F 
ATOM     16  F   UNL     1      21.940   2.701  51.304  1.00  0.00    -0.206 F 
BRANCH  13  17
ATOM     17  C   UNL     1      24.094   3.858  49.926  1.00  0.00     0.201 C 
ATOM     18  O   UNL     1      23.642   3.605  48.812  1.00  0.00    -0.288 OA
BRANCH  17  19
ATOM     19  C   UNL     1      24.457   5.206  50.357  1.00  0.00     0.050 A 
ATOM     20  C   UNL     1      23.851   5.956  51.357  1.00  0.00     0.097 A 
ATOM     21  C   UNL     1      25.507   6.023  49.821  1.00  0.00     0.031 A 
ATOM     22  N   UNL     1      24.497   7.164  51.449  1.00  0.00    -0.345 N 
ATOM     23  C   UNL     1      26.477   5.880  48.809  1.00  0.00     0.035 A 
ATOM     24  C   UNL     1      25.498   7.224  50.523  1.00  0.00     0.138 A 
ATOM     25  C   UNL     1      27.346   6.947  48.592  1.00  0.00     0.060 A 
ATOM     26  N   UNL     1      26.310   8.284  50.356  1.00  0.00    -0.237 NA
ATOM     27  C   UNL     1      27.223   8.092  49.371  1.00  0.00     0.134 A 
ATOM     28  H   UNL     1      24.283   7.913  52.093  1.00  0.00     0.167 HD
ATOM     29  Cl  UNL     1      28.555   6.845  47.374  1.00  0.00    -0.083 Cl
ENDBRANCH  17  19
ENDBRANCH  13  17
ENDBRANCH   1   9
TORSDOF 6
ENDMDL
MODEL 3
REMARK minimizedAffinity -8.15934086
REMARK minimizedRMSD -1
REMARK SMILES CCCS(=O)(=O)Nc1ccc(F)c(C(=O)c2c[nH]c3ncc(Cl)cc23)c1F
REMARK SMILES IDX 7 1 4 3 5 4 6 5 3 6 2 7 1 8 8 9 9 10 26 11 10 12 13 13 11 14
REMARK SMILES IDX 27 15 12 16 14 17 15 18 16 19 17 20 25 21 18 22 24 23 19 24
REMARK SMILES IDX 22 25 20 26 21 27 23 29
REMARK H PARENT 7 2 18 28
ROOT
ATOM      1  N   UNL     1      25.982   0.007  53.868  1.00  0.00    -0.281 N 
ATOM      2  H   UNL     1      26.002  -0.408  54.807  1.00  0.00     0.180 HD
ENDROOT
BRANCH   1   3
ATOM      3  S   UNL     1      27.104  -0.862  52.927  1.00  0.00     0.232 S 
ATOM      4  O   UNL     1      26.942  -0.504  51.534  1.00  0.00    -0.207 OA
ATOM      5  O   UNL     1      27.001  -2.236  53.367  1.00  0.00    -0.207 OA
BRANCH   3   6
ATOM      6  C   UNL     1      28.659  -0.197  53.511  1.00  0.00     0.159 C 
BRANCH   6   7
ATOM      7  C   UNL     1      28.490   1.029  54.399  1.00  0.00     0.015 C 
ATOM      8  C   UNL     1      28.663   2.313  53.604  1.00  0.00     0.005 C 
ENDBRANCH   6   7
ENDBRANCH   3   6
ENDBRANCH   1   3
BRANCH   1   9
ATOM      9  C   UNL     1      24.664   0.089  53.313  1.00  0.00     0.085 A 
ATOM     10  C   UNL     1      23.641  -0.695  53.850  1.00  0.00     0.033 A 
ATOM     11  C   UNL     1      24.374   1.048  52.337  1.00  0.00     0.161 A 
ATOM     12  C   UNL     1      22.332  -0.536  53.388  1.00  0.00     0.042 A 
ATOM     13  C   UNL     1      23.068   1.221  51.897  1.00  0.00     0.096 A 
ATOM     14  C   UNL     1      22.052   0.424  52.414  1.00  0.00     0.137 A 
ATOM     15  F   UNL     1      25.370   1.798  51.841  1.00  0.00    -0.204 F 
ATOM     16  F   UNL     1      20.785   0.579  52.011  1.00  0.00    -0.206 F 
BRANCH  13  17
ATOM     17  C   UNL     1      22.757   2.229  50.886  1.00  0.00     0.201 C 
ATOM     18  O   UNL     1      22.401   1.837  49.778  1.00  0.00    -0.288 OA
BRANCH  17  19
ATOM     19  C   UNL     1      22.879   3.642  51.235  1.00  0.00     0.050 A 
ATOM     20  C   UNL     1      22.059   4.369  52.089  1.00  0.00     0.097 A 
ATOM     21  C   UNL     1      23.870   4.561  50.751  1.00  0.00     0.031 A 
ATOM     22  N   UNL     1      22.522   5.660  52.147  1.00  0.00    -0.345 N 
ATOM     23  C   UNL     1      24.970   4.486  49.873  1.00  0.00     0.035 A 
ATOM     24  C   UNL     1      23.614   5.795  51.339  1.00  0.00     0.138 A 
ATOM     25  C   UNL     1      25.709   5.648  49.663  1.00  0.00     0.060 A 
ATOM     26  N   UNL     1      24.292   6.946  51.173  1.00  0.00    -0.237 NA
ATOM     27  C   UNL     1      25.338   6.816  50.319  1.00  0.00     0.134 A 
ATOM     28  H   UNL     1      22.132   6.414  52.694  1.00  0.00     0.167 HD
ATOM     29  Cl  UNL     1      27.063   5.632  48.605  1.00  0.00    -0.083 Cl
ENDBRANCH  17  19
ENDBRANCH  13  17
ENDBRANCH   1   9
TORSDOF 6
ENDMDL
MODEL 4
REMARK minimizedAffinity -8.12454319
REMARK minimizedRMSD -1
REMARK SMILES CCCS(=O)(=O)Nc1ccc(F)c(C(=O)c2c[nH]c3ncc(Cl)cc23)c1F
REMARK SMILES IDX 7 1 4 3 5 4 6 5 3 6 2 7 1 8 8 9 9 10 26 11 10 12 13 13 11 14
REMARK SMILES IDX 27 15 12 16 14 17 15 18 16 19 17 20 25 21 18 22 24 23 19 24
REMARK SMILES IDX 22 25 20 26 21 27 23 29
REMARK H PARENT 7 2 18 28
ROOT
ATOM      1  N   UNL     1      27.064   0.620  52.343  1.00  0.00    -0.281 N 
ATOM      2  H   UNL     1      27.333   1.036  51.444  1.00  0.00     0.180 HD
ENDROOT
BRANCH   1   3
ATOM      3  S   UNL     1      27.826   1.544  53.554  1.00  0.00     0.232 S 
ATOM      4  O   UNL     1      26.820   2.142  54.405  1.00  0.00    -0.207 OA
ATOM      5  O   UNL     1      28.808   2.354  52.866  1.00  0.00    -0.207 OA
BRANCH   3   6
ATOM      6  C   UNL     1      28.688   0.282  54.484  1.00  0.00     0.159 C 
BRANCH   6   7
ATOM      7  C   UNL     1      29.781  -0.412  53.683  1.00  0.00     0.015 C 
ATOM      8  C   UNL     1      29.402  -1.849  53.364  1.00  0.00     0.005 C 
ENDBRANCH   6   7
ENDBRANCH   3   6
ENDBRANCH   1   3
BRANCH   1   9
ATOM      9  C   UNL     1      25.648   0.472  52.497  1.00  0.00     0.085 A 
ATOM     10  C   UNL     1      25.146  -0.540  53.318  1.00  0.00     0.033 A 
ATOM     11  C   UNL     1      24.781   1.419  51.942  1.00  0.00     0.161 A 
ATOM     12  C   UNL     1      23.772  -0.617  53.560  1.00  0.00     0.042 A 
ATOM     13  C   UNL     1      23.419   1.355  52.204  1.00  0.00     0.096 A 
ATOM     14  C   UNL     1      22.916   0.333  53.003  1.00  0.00     0.137 A 
ATOM     15  F   UNL     1      25.285   2.389  51.163  1.00  0.00    -0.204 F 
ATOM     16  F   UNL     1      21.607   0.257  53.276  1.00  0.00    -0.206 F 
BRANCH  13  17
ATOM     17  C   UNL     1      22.509   2.348  51.637  1.00  0.00     0.201 C 
ATOM     18  O   UNL     1      22.177   3.292  52.349  1.00  0.00    -0.288 OA
BRANCH  17  19
ATOM     19  C   UNL     1      22.044   2.177  50.263  1.00  0.00     0.050 A 
ATOM     20  C   UNL     1      21.374   1.080  49.736  1.00  0.00     0.097 A 
ATOM     21  C   UNL     1      22.199   3.110  49.183  1.00  0.00     0.031 A 
ATOM     22  N   UNL     1      21.113   1.323  48.410  1.00  0.00    -0.345 N 
ATOM     23  C   UNL     1      22.777   4.386  49.031  1.00  0.00     0.035 A 
ATOM     24  C   UNL     1      21.610   2.544  48.058  1.00  0.00     0.138 A 
ATOM     25  C   UNL     1      22.714   4.977  47.771  1.00  0.00     0.060 A 
ATOM     26  N   UNL     1      21.521   3.067  46.821  1.00  0.00    -0.237 NA
ATOM     27  C   UNL     1      22.093   4.295  46.732  1.00  0.00     0.134 A 
ATOM     28  H   UNL     1      20.630   0.708  47.770  1.00  0.00     0.167 HD
ATOM     29  Cl  UNL     1      23.398   6.532  47.509  1.00  0.00    -0.083 Cl
ENDBRANCH  17  19
ENDBRANCH  13  17
ENDBRANCH   1   9
TORSDOF 6
ENDMDL
MODEL 5
REMARK minimizedAffinity -8.09528065
REMARK minimizedRMSD -1
REMARK SMILES CCCS(=O)(=O)Nc1ccc(F)c(C(=O)c2c[nH]c3ncc(Cl)cc23)c1F
REMARK SMILES IDX 7 1 4 3 5 4 6 5 3 6 2 7 1 8 8 9 9 10 26 11 10 12 13 13 11 14
REMARK SMILES IDX 27 15 12 16 14 17 15 18 16 19 17 20 25 21 18 22 24 23 19 24
REMARK SMILES IDX 22 25 20 26 21 27 23 29
REMARK H PARENT 7 2 18 28
ROOT
ATOM      1  N   UNL     1      26.501   1.936  54.398  1.00  0.00    -0.281 N 
ATOM      2  H   UNL     1      26.612   1.648  55.377  1.00  0.00     0.180 HD
ENDROOT
BRANCH   1   3
ATOM      3  S   UNL     1      28.007   1.688  53.643  1.00  0.00     0.232 S 
ATOM      4  O   UNL     1      28.903   2.768  53.994  1.00  0.00    -0.207 OA
ATOM      5  O   UNL     1      27.706   1.379  52.262  1.00  0.00    -0.207 OA
BRANCH   3   6
ATOM      6  C   UNL     1      28.572   0.191  54.446  1.00  0.00     0.159 C 
BRANCH   6   7
ATOM      7  C   UNL     1      29.694  -0.508  53.689  1.00  0.00     0.015 C 
ATOM      8  C   UNL     1      29.281  -1.907  53.262  1.00  0.00     0.005 C 
ENDBRANCH   6   7
ENDBRANCH   3   6
ENDBRANCH   1   3
BRANCH   1   9
ATOM      9  C   UNL     1      25.389   1.309  53.748  1.00  0.00     0.085 A 
ATOM     10  C   UNL     1      25.209  -0.070  53.868  1.00  0.00     0.033 A 
ATOM     11  C   UNL     1      24.416   2.091  53.116  1.00  0.00     0.161 A 
ATOM     12  C   UNL     1      24.065  -0.667  53.331  1.00  0.00     0.042 A 
ATOM     13  C   UNL     1      23.269   1.498  52.605  1.00  0.00     0.096 A 
ATOM     14  C   UNL     1      23.100   0.121  52.703  1.00  0.00     0.137 A 
ATOM     15  F   UNL     1      24.605   3.417  53.019  1.00  0.00    -0.204 F 
ATOM     16  F   UNL     1      21.998  -0.471  52.225  1.00  0.00    -0.206 F 
BRANCH  13  17
ATOM     17  C   UNL     1      22.244   2.311  51.954  1.00  0.00     0.201 C 
ATOM     18  O   UNL     1      21.225   2.563  52.591  1.00  0.00    -0.288 OA
BRANCH  17  19
ATOM     19  C   UNL     1      22.476   2.784  50.591  1.00  0.00     0.050 A 
ATOM     20  C   UNL     1      22.394   2.040  49.421  1.00  0.00     0.097 A 
ATOM     21  C   UNL     1      22.847   4.113  50.197  1.00  0.00     0.031 A 
ATOM     22  N   UNL     1      22.680   2.862  48.359  1.00  0.00    -0.345 N 
ATOM     23  C   UNL     1      23.099   5.328  50.866  1.00  0.00     0.035 A 
ATOM     24  C   UNL     1      22.962   4.119  48.811  1.00  0.00     0.138 A 
ATOM     25  C   UNL     1      23.443   6.433  50.090  1.00  0.00     0.060 A 
ATOM     26  N   UNL     1      23.290   5.152  48.014  1.00  0.00    -0.237 NA
ATOM     27  C   UNL     1      23.521   6.294  48.709  1.00  0.00     0.134 A 
ATOM     28  H   UNL     1      22.689   2.602  47.383  1.00  0.00     0.167 HD
ATOM     29  Cl  UNL     1      23.765   7.948  50.835  1.00  0.00    -0.083 Cl
ENDBRANCH  17  19
ENDBRANCH  13  17
ENDBRANCH   1   9
TORSDOF 6
ENDMDL
MODEL 6
REMARK minimizedAffinity -8.00888443
REMARK minimizedRMSD -1
REMARK SMILES CCCS(=O)(=O)Nc1ccc(F)c(C(=O)c2c[nH]c3ncc(Cl)cc23)c1F
REMARK SMILES IDX 7 1 4 3 5 4 6 5 3 6 2 7 1 8 8 9 9 10 26 11 10 12 13 13 11 14
REMARK SMILES IDX 27 15 12 16 14 17 15 18 16 19 17 20 25 21 18 22 24 23 19 24
REMARK SMILES IDX 22 25 20 26 21 27 23 29
REMARK H PARENT 7 2 18 28
ROOT
ATOM      1  N   UNL     1      20.223   1.380  51.487  1.00  0.00    -0.281 N 
ATOM      2  H   UNL     1      19.298   0.947  51.374  1.00  0.00     0.180 HD
ENDROOT
BRANCH   1   3
ATOM      3  S   UNL     1      19.963   3.059  51.606  1.00  0.00     0.232 S 
ATOM      4  O   UNL     1      21.015   3.651  52.405  1.00  0.00    -0.207 OA
ATOM      5  O   UNL     1      18.570   3.214  51.961  1.00  0.00    -0.207 OA
BRANCH   3   6
ATOM      6  C   UNL     1      20.175   3.578  49.907  1.00  0.00     0.159 C 
BRANCH   6   7
ATOM      7  C   UNL     1      21.514   3.159  49.314  1.00  0.00     0.015 C 
ATOM      8  C   UNL     1      21.325   2.223  48.132  1.00  0.00     0.005 C 
ENDBRANCH   6   7
ENDBRANCH   3   6
ENDBRANCH   1   3
BRANCH   1   9
ATOM      9  C   UNL     1      20.986   0.809  52.557  1.00  0.00     0.085 A 
ATOM     10  C   UNL     1      20.328   0.329  53.691  1.00  0.00     0.033 A 
ATOM     11  C   UNL     1      22.362   0.608  52.405  1.00  0.00     0.161 A 
ATOM     12  C   UNL     1      21.057  -0.330  54.685  1.00  0.00     0.042 A 
ATOM     13  C   UNL     1      23.079  -0.068  53.384  1.00  0.00     0.096 A 
ATOM     14  C   UNL     1      22.429  -0.526  54.525  1.00  0.00     0.137 A 
ATOM     15  F   UNL     1      22.972   1.070  51.303  1.00  0.00    -0.204 F 
ATOM     16  F   UNL     1      23.099  -1.188  55.477  1.00  0.00    -0.206 F 
BRANCH  13  17
ATOM     17  C   UNL     1      24.514  -0.291  53.226  1.00  0.00     0.201 C 
ATOM     18  O   UNL     1      24.883  -1.405  52.861  1.00  0.00    -0.288 OA
BRANCH  17  19
ATOM     19  C   UNL     1      25.436   0.808  53.503  1.00  0.00     0.050 A 
ATOM     20  C   UNL     1      25.117   2.153  53.640  1.00  0.00     0.097 A 
ATOM     21  C   UNL     1      26.857   0.711  53.677  1.00  0.00     0.031 A 
ATOM     22  N   UNL     1      26.271   2.851  53.901  1.00  0.00    -0.345 N 
ATOM     23  C   UNL     1      27.804  -0.332  53.658  1.00  0.00     0.035 A 
ATOM     24  C   UNL     1      27.333   1.994  53.922  1.00  0.00     0.138 A 
ATOM     25  C   UNL     1      29.138   0.003  53.883  1.00  0.00     0.060 A 
ATOM     26  N   UNL     1      28.605   2.375  54.144  1.00  0.00    -0.237 NA
ATOM     27  C   UNL     1      29.474   1.333  54.114  1.00  0.00     0.134 A 
ATOM     28  H   UNL     1      26.349   3.846  54.057  1.00  0.00     0.167 HD
ATOM     29  Cl  UNL     1      30.350  -1.215  53.873  1.00  0.00    -0.083 Cl
ENDBRANCH  17  19
ENDBRANCH  13  17
ENDBRANCH   1   9
TORSDOF 6
ENDMDL
MODEL 7
REMARK minimizedAffinity -7.96123362
REMARK minimizedRMSD -1
REMARK SMILES CCCS(=O)(=O)Nc1ccc(F)c(C(=O)c2c[nH]c3ncc(Cl)cc23)c1F
REMARK SMILES IDX 7 1 4 3 5 4 6 5 3 6 2 7 1 8 8 9 9 10 26 11 10 12 13 13 11 14
REMARK SMILES IDX 27 15 12 16 14 17 15 18 16 19 17 20 25 21 18 22 24 23 19 24
REMARK SMILES IDX 22 25 20 26 21 27 23 29
REMARK H PARENT 7 2 18 28
ROOT
ATOM      1  N   UNL     1      26.796   2.676  52.578  1.00  0.00    -0.281 N 
ATOM      2  H   UNL     1      26.869   3.338  53.359  1.00  0.00     0.180 HD
ENDROOT
BRANCH   1   3
ATOM      3  S   UNL     1      26.900   1.115  53.252  1.00  0.00     0.232 S 
ATOM      4  O   UNL     1      26.320   0.158  52.335  1.00  0.00    -0.207 OA
ATOM      5  O   UNL     1      26.418   1.244  54.610  1.00  0.00    -0.207 OA
BRANCH   3   6
ATOM      6  C   UNL     1      28.670   0.860  53.302  1.00  0.00     0.159 C 
BRANCH   6   7
ATOM      7  C   UNL     1      29.084  -0.286  54.217  1.00  0.00     0.015 C 
ATOM      8  C   UNL     1      29.413  -1.537  53.418  1.00  0.00     0.005 C 
ENDBRANCH   6   7
ENDBRANCH   3   6
ENDBRANCH   1   3
BRANCH   1   9
ATOM      9  C   UNL     1      25.649   2.902  51.750  1.00  0.00     0.085 A 
ATOM     10  C   UNL     1      25.761   2.758  50.366  1.00  0.00     0.033 A 
ATOM     11  C   UNL     1      24.399   3.128  52.334  1.00  0.00     0.161 A 
ATOM     12  C   UNL     1      24.620   2.867  49.566  1.00  0.00     0.042 A 
ATOM     13  C   UNL     1      23.264   3.212  51.538  1.00  0.00     0.096 A 
ATOM     14  C   UNL     1      23.377   3.091  50.157  1.00  0.00     0.137 A 
ATOM     15  F   UNL     1      24.313   3.255  53.667  1.00  0.00    -0.204 F 
ATOM     16  F   UNL     1      22.294   3.160  49.371  1.00  0.00    -0.206 F 
BRANCH  13  17
ATOM     17  C   UNL     1      21.952   3.436  52.143  1.00  0.00     0.201 C 
ATOM     18  O   UNL     1      21.697   4.565  52.554  1.00  0.00    -0.288 OA
BRANCH  17  19
ATOM     19  C   UNL     1      21.013   2.320  52.229  1.00  0.00     0.050 A 
ATOM     20  C   UNL     1      19.775   2.217  51.606  1.00  0.00     0.097 A 
ATOM     21  C   UNL     1      21.184   1.114  52.988  1.00  0.00     0.031 A 
ATOM     22  N   UNL     1      19.216   1.010  51.944  1.00  0.00    -0.345 N 
ATOM     23  C   UNL     1      22.182   0.588  53.832  1.00  0.00     0.035 A 
ATOM     24  C   UNL     1      20.052   0.332  52.783  1.00  0.00     0.138 A 
ATOM     25  C   UNL     1      21.957  -0.667  54.394  1.00  0.00     0.060 A 
ATOM     26  N   UNL     1      19.782  -0.882  53.298  1.00  0.00    -0.237 NA
ATOM     27  C   UNL     1      20.775  -1.339  54.102  1.00  0.00     0.134 A 
ATOM     28  H   UNL     1      18.323   0.654  51.633  1.00  0.00     0.167 HD
ATOM     29  Cl  UNL     1      23.129  -1.371  55.436  1.00  0.00    -0.083 Cl
ENDBRANCH  17  19
ENDBRANCH  13  17
ENDBRANCH   1   9
TORSDOF 6
ENDMDL
MODEL 8
REMARK minimizedAffinity -7.91222525
REMARK minimizedRMSD -1
REMARK SMILES CCCS(=O)(=O)Nc1ccc(F)c(C(=O)c2c[nH]c3ncc(Cl)cc23)c1F
REMARK SMILES IDX 7 1 4 3 5 4 6 5 3 6 2 7 1 8 8 9 9 10 26 11 10 12 13 13 11 14
REMARK SMILES IDX 27 15 12 16 14 17 15 18 16 19 17 20 25 21 18 22 24 23 19 24
REMARK SMILES IDX 22 25 20 26 21 27 23 29
REMARK H PARENT 7 2 18 28
ROOT
ATOM      1  N   UNL     1      25.004   4.480  51.166  1.00  0.00    -0.281 N 
ATOM      2  H   UNL     1      25.755   3.940  51.613  1.00  0.00     0.180 HD
ENDROOT
BRANCH   1   3
ATOM      3  S   UNL     1      25.308   4.444  49.491  1.00  0.00     0.232 S 
ATOM      4  O   UNL     1      24.051   4.421  48.776  1.00  0.00    -0.207 OA
ATOM      5  O   UNL     1      26.304   3.412  49.297  1.00  0.00    -0.207 OA
BRANCH   3   6
ATOM      6  C   UNL     1      26.085   6.035  49.230  1.00  0.00     0.159 C 
BRANCH   6   7
ATOM      7  C   UNL     1      27.389   5.943  48.447  1.00  0.00     0.015 C 
ATOM      8  C   UNL     1      28.141   7.264  48.475  1.00  0.00     0.005 C 
ENDBRANCH   6   7
ENDBRANCH   3   6
ENDBRANCH   1   3
BRANCH   1   9
ATOM      9  C   UNL     1      23.693   4.052  51.552  1.00  0.00     0.085 A 
ATOM     10  C   UNL     1      22.724   5.005  51.873  1.00  0.00     0.033 A 
ATOM     11  C   UNL     1      23.347   2.699  51.472  1.00  0.00     0.161 A 
ATOM     12  C   UNL     1      21.415   4.596  52.140  1.00  0.00     0.042 A 
ATOM     13  C   UNL     1      22.039   2.299  51.714  1.00  0.00     0.096 A 
ATOM     14  C   UNL     1      21.079   3.245  52.057  1.00  0.00     0.137 A 
ATOM     15  F   UNL     1      24.292   1.801  51.153  1.00  0.00    -0.204 F 
ATOM     16  F   UNL     1      19.810   2.883  52.286  1.00  0.00    -0.206 F 
BRANCH  13  17
ATOM     17  C   UNL     1      21.669   0.888  51.621  1.00  0.00     0.201 C 
ATOM     18  O   UNL     1      21.411   0.437  50.508  1.00  0.00    -0.288 OA
BRANCH  17  19
ATOM     19  C   UNL     1      21.625   0.087  52.841  1.00  0.00     0.050 A 
ATOM     20  C   UNL     1      20.497  -0.445  53.453  1.00  0.00     0.097 A 
ATOM     21  C   UNL     1      22.743  -0.298  53.654  1.00  0.00     0.031 A 
ATOM     22  N   UNL     1      20.892  -1.136  54.573  1.00  0.00    -0.345 N 
ATOM     23  C   UNL     1      24.137  -0.093  53.611  1.00  0.00     0.035 A 
ATOM     24  C   UNL     1      22.247  -1.053  54.712  1.00  0.00     0.138 A 
ATOM     25  C   UNL     1      24.904  -0.658  54.627  1.00  0.00     0.060 A 
ATOM     26  N   UNL     1      22.939  -1.620  55.718  1.00  0.00    -0.237 NA
ATOM     27  C   UNL     1      24.273  -1.390  55.627  1.00  0.00     0.134 A 
ATOM     28  H   UNL     1      20.292  -1.636  55.213  1.00  0.00     0.167 HD
ATOM     29  Cl  UNL     1      26.610  -0.449  54.642  1.00  0.00    -0.083 Cl
ENDBRANCH  17  19
ENDBRANCH  13  17
ENDBRANCH   1   9
TORSDOF 6
ENDMDL
MODEL 9
REMARK minimizedAffinity -7.82869101
REMARK minimizedRMSD -1
REMARK SMILES CCCS(=O)(=O)Nc1ccc(F)c(C(=O)c2c[nH]c3ncc(Cl)cc23)c1F
REMARK SMILES IDX 7 1 4 3 5 4 6 5 3 6 2 7 1 8 8 9 9 10 26 11 10 12 13 13 11 14
REMARK SMILES IDX 27 15 12 16 14 17 15 18 16 19 17 20 25 21 18 22 24 23 19 24
REMARK SMILES IDX 22 25 20 26 21 27 23 29
REMARK H PARENT 7 2 18 28
ROOT
ATOM      1  N   UNL     1      26.854   1.064  52.152  1.00  0.00    -0.281 N 
ATOM      2  H   UNL     1      27.436   0.537  51.490  1.00  0.00     0.180 HD
ENDROOT
BRANCH   1   3
ATOM      3  S   UNL     1      27.882   1.560  53.416  1.00  0.00     0.232 S 
ATOM      4  O   UNL     1      27.107   1.721  54.628  1.00  0.00    -0.207 OA
ATOM      5  O   UNL     1      28.669   2.646  52.876  1.00  0.00    -0.207 OA
BRANCH   3   6
ATOM      6  C   UNL     1      28.943   0.131  53.602  1.00  0.00     0.159 C 
BRANCH   6   7
ATOM      7  C   UNL     1      28.273  -1.171  53.183  1.00  0.00     0.015 C 
ATOM      8  C   UNL     1      29.256  -2.330  53.208  1.00  0.00     0.005 C 
ENDBRANCH   6   7
ENDBRANCH   3   6
ENDBRANCH   1   3
BRANCH   1   9
ATOM      9  C   UNL     1      26.106   2.117  51.533  1.00  0.00     0.085 A 
ATOM     10  C   UNL     1      26.507   2.606  50.288  1.00  0.00     0.033 A 
ATOM     11  C   UNL     1      24.908   2.555  52.106  1.00  0.00     0.161 A 
ATOM     12  C   UNL     1      25.718   3.553  49.630  1.00  0.00     0.042 A 
ATOM     13  C   UNL     1      24.113   3.477  51.438  1.00  0.00     0.096 A 
ATOM     14  C   UNL     1      24.523   3.982  50.208  1.00  0.00     0.137 A 
ATOM     15  F   UNL     1      24.537   2.065  53.299  1.00  0.00    -0.204 F 
ATOM     16  F   UNL     1      23.768   4.866  49.543  1.00  0.00    -0.206 F 
BRANCH  13  17
ATOM     17  C   UNL     1      22.853   3.929  52.025  1.00  0.00     0.201 C 
ATOM     18  O   UNL     1      22.897   4.860  52.826  1.00  0.00    -0.288 OA
BRANCH  17  19
ATOM     19  C   UNL     1      21.612   3.263  51.637  1.00  0.00     0.050 A 
ATOM     20  C   UNL     1      20.689   3.697  50.693  1.00  0.00     0.097 A 
ATOM     21  C   UNL     1      21.099   2.032  52.166  1.00  0.00     0.031 A 
ATOM     22  N   UNL     1      19.670   2.780  50.626  1.00  0.00    -0.345 N 
ATOM     23  C   UNL     1      21.522   1.098  53.132  1.00  0.00     0.035 A 
ATOM     24  C   UNL     1      19.899   1.769  51.514  1.00  0.00     0.138 A 
ATOM     25  C   UNL     1      20.708  -0.010  53.359  1.00  0.00     0.060 A 
ATOM     26  N   UNL     1      19.074   0.720  51.693  1.00  0.00    -0.237 NA
ATOM     27  C   UNL     1      19.530  -0.146  52.634  1.00  0.00     0.134 A 
ATOM     28  H   UNL     1      18.861   2.823  50.022  1.00  0.00     0.167 HD
ATOM     29  Cl  UNL     1      21.158  -1.191  54.524  1.00  0.00    -0.083 Cl
ENDBRANCH  17  19
ENDBRANCH  13  17
ENDBRANCH   1   9
TORSDOF 6
ENDMDL
MODEL 10
REMARK minimizedAffinity -7.69054985
REMARK minimizedRMSD -1
REMARK SMILES CCCS(=O)(=O)Nc1ccc(F)c(C(=O)c2c[nH]c3ncc(Cl)cc23)c1F
REMARK SMILES IDX 7 1 4 3 5 4 6 5 3 6 2 7 1 8 8 9 9 10 26 11 10 12 13 13 11 14
REMARK SMILES IDX 27 15 12 16 14 17 15 18 16 19 17 20 25 21 18 22 24 23 19 24
REMARK SMILES IDX 22 25 20 26 21 27 23 29
REMARK H PARENT 7 2 18 28
ROOT
ATOM      1  N   UNL     1      20.659   2.198  50.675  1.00  0.00    -0.281 N 
ATOM      2  H   UNL     1      19.675   1.994  50.467  1.00  0.00     0.180 HD
ENDROOT
BRANCH   1   3
ATOM      3  S   UNL     1      20.820   3.893  50.652  1.00  0.00     0.232 S 
ATOM      4  O   UNL     1      21.288   4.348  51.944  1.00  0.00    -0.207 OA
ATOM      5  O   UNL     1      19.592   4.394  50.076  1.00  0.00    -0.207 OA
BRANCH   3   6
ATOM      6  C   UNL     1      22.135   4.115  49.458  1.00  0.00     0.159 C 
BRANCH   6   7
ATOM      7  C   UNL     1      23.422   4.647  50.075  1.00  0.00     0.015 C 
ATOM      8  C   UNL     1      24.644   4.101  49.355  1.00  0.00     0.005 C 
ENDBRANCH   6   7
ENDBRANCH   3   6
ENDBRANCH   1   3
BRANCH   1   9
ATOM      9  C   UNL     1      21.127   1.563  51.870  1.00  0.00     0.085 A 
ATOM     10  C   UNL     1      20.220   1.249  52.884  1.00  0.00     0.033 A 
ATOM     11  C   UNL     1      22.456   1.136  51.962  1.00  0.00     0.161 A 
ATOM     12  C   UNL     1      20.653   0.529  54.001  1.00  0.00     0.042 A 
ATOM     13  C   UNL     1      22.877   0.400  53.061  1.00  0.00     0.096 A 
ATOM     14  C   UNL     1      21.980   0.107  54.083  1.00  0.00     0.137 A 
ATOM     15  F   UNL     1      23.310   1.441  50.972  1.00  0.00    -0.204 F 
ATOM     16  F   UNL     1      22.361  -0.609  55.148  1.00  0.00    -0.206 F 
BRANCH  13  17
ATOM     17  C   UNL     1      24.261  -0.059  53.157  1.00  0.00     0.201 C 
ATOM     18  O   UNL     1      24.481  -1.255  52.978  1.00  0.00    -0.288 OA
BRANCH  17  19
ATOM     19  C   UNL     1      25.310   0.913  53.456  1.00  0.00     0.050 A 
ATOM     20  C   UNL     1      25.152   2.278  53.662  1.00  0.00     0.097 A 
ATOM     21  C   UNL     1      26.714   0.646  53.583  1.00  0.00     0.031 A 
ATOM     22  N   UNL     1      26.385   2.826  53.920  1.00  0.00    -0.345 N 
ATOM     23  C   UNL     1      27.535  -0.496  53.489  1.00  0.00     0.035 A 
ATOM     24  C   UNL     1      27.342   1.854  53.870  1.00  0.00     0.138 A 
ATOM     25  C   UNL     1      28.903  -0.326  53.688  1.00  0.00     0.060 A 
ATOM     26  N   UNL     1      28.654   2.075  54.072  1.00  0.00    -0.237 NA
ATOM     27  C   UNL     1      29.395   0.944  53.969  1.00  0.00     0.134 A 
ATOM     28  H   UNL     1      26.581   3.797  54.117  1.00  0.00     0.167 HD
ATOM     29  Cl  UNL     1      29.966  -1.673  53.588  1.00  0.00    -0.083 Cl
ENDBRANCH  17  19
ENDBRANCH  13  17
ENDBRANCH   1   9
TORSDOF 6
ENDMDL
MODEL 11
REMARK minimizedAffinity -7.65774918
REMARK minimizedRMSD -1
REMARK SMILES CCCS(=O)(=O)Nc1ccc(F)c(C(=O)c2c[nH]c3ncc(Cl)cc23)c1F
REMARK SMILES IDX 7 1 4 3 5 4 6 5 3 6 2 7 1 8 8 9 9 10 26 11 10 12 13 13 11 14
REMARK SMILES IDX 27 15 12 16 14 17 15 18 16 19 17 20 25 21 18 22 24 23 19 24
REMARK SMILES IDX 22 25 20 26 21 27 23 29
REMARK H PARENT 7 2 18 28
ROOT
ATOM      1  N   UNL     1      26.216  -0.452  54.140  1.00  0.00    -0.281 N 
ATOM      2  H   UNL     1      26.012  -1.213  54.797  1.00  0.00     0.180 HD
ENDROOT
BRANCH   1   3
ATOM      3  S   UNL     1      27.250  -1.099  52.951  1.00  0.00     0.232 S 
ATOM      4  O   UNL     1      26.914  -0.531  51.663  1.00  0.00    -0.207 OA
ATOM      5  O   UNL     1      27.246  -2.529  53.167  1.00  0.00    -0.207 OA
BRANCH   3   6
ATOM      6  C   UNL     1      28.839  -0.454  53.464  1.00  0.00     0.159 C 
BRANCH   6   7
ATOM      7  C   UNL     1      28.755   0.436  54.696  1.00  0.00     0.015 C 
ATOM      8  C   UNL     1      29.306   1.824  54.412  1.00  0.00     0.005 C 
ENDBRANCH   6   7
ENDBRANCH   3   6
ENDBRANCH   1   3
BRANCH   1   9
ATOM      9  C   UNL     1      25.039   0.188  53.633  1.00  0.00     0.085 A 
ATOM     10  C   UNL     1      23.832  -0.514  53.605  1.00  0.00     0.033 A 
ATOM     11  C   UNL     1      25.069   1.546  53.300  1.00  0.00     0.161 A 
ATOM     12  C   UNL     1      22.660   0.142  53.218  1.00  0.00     0.042 A 
ATOM     13  C   UNL     1      23.898   2.201  52.940  1.00  0.00     0.096 A 
ATOM     14  C   UNL     1      22.700   1.497  52.889  1.00  0.00     0.137 A 
ATOM     15  F   UNL     1      26.238   2.204  53.343  1.00  0.00    -0.204 F 
ATOM     16  F   UNL     1      21.557   2.110  52.553  1.00  0.00    -0.206 F 
BRANCH  13  17
ATOM     17  C   UNL     1      23.921   3.623  52.603  1.00  0.00     0.201 C 
ATOM     18  O   UNL     1      23.809   4.430  53.522  1.00  0.00    -0.288 OA
BRANCH  17  19
ATOM     19  C   UNL     1      24.075   4.016  51.205  1.00  0.00     0.050 A 
ATOM     20  C   UNL     1      25.245   3.999  50.454  1.00  0.00     0.097 A 
ATOM     21  C   UNL     1      23.046   4.508  50.335  1.00  0.00     0.031 A 
ATOM     22  N   UNL     1      24.956   4.440  49.186  1.00  0.00    -0.345 N 
ATOM     23  C   UNL     1      21.667   4.772  50.456  1.00  0.00     0.035 A 
ATOM     24  C   UNL     1      23.632   4.757  49.098  1.00  0.00     0.138 A 
ATOM     25  C   UNL     1      21.002   5.261  49.332  1.00  0.00     0.060 A 
ATOM     26  N   UNL     1      23.041   5.227  47.984  1.00  0.00    -0.237 NA
ATOM     27  C   UNL     1      21.716   5.464  48.157  1.00  0.00     0.134 A 
ATOM     28  H   UNL     1      25.606   4.526  48.418  1.00  0.00     0.167 HD
ATOM     29  Cl  UNL     1      19.320   5.607  49.405  1.00  0.00    -0.083 Cl
ENDBRANCH  17  19
ENDBRANCH  13  17
ENDBRANCH   1   9
TORSDOF 6
ENDMDL
MODEL 12
REMARK minimizedAffinity -7.57611179
REMARK minimizedRMSD -1
REMARK SMILES CCCS(=O)(=O)Nc1ccc(F)c(C(=O)c2c[nH]c3ncc(Cl)cc23)c1F
REMARK SMILES IDX 7 1 4 3 5 4 6 5 3 6 2 7 1 8 8 9 9 10 26 11 10 12 13 13 11 14
REMARK SMILES IDX 27 15 12 16 14 17 15 18 16 19 17 20 25 21 18 22 24 23 19 24
REMARK SMILES IDX 22 25 20 26 21 27 23 29
REMARK H PARENT 7 2 18 28
ROOT
ATOM      1  N   UNL     1      24.501   3.971  50.372  1.00  0.00    -0.281 N 
ATOM      2  H   UNL     1      25.282   3.651  49.787  1.00  0.00     0.180 HD
ENDROOT
BRANCH   1   3
ATOM      3  S   UNL     1      24.342   5.645  50.100  1.00  0.00     0.232 S 
ATOM      4  O   UNL     1      24.149   6.320  51.365  1.00  0.00    -0.207 OA
ATOM      5  O   UNL     1      23.385   5.775  49.023  1.00  0.00    -0.207 OA
BRANCH   3   6
ATOM      6  C   UNL     1      25.963   6.064  49.469  1.00  0.00     0.159 C 
BRANCH   6   7
ATOM      7  C   UNL     1      26.740   4.856  48.962  1.00  0.00     0.015 C 
ATOM      8  C   UNL     1      28.100   5.264  48.421  1.00  0.00     0.005 C 
ENDBRANCH   6   7
ENDBRANCH   3   6
ENDBRANCH   1   3
BRANCH   1   9
ATOM      9  C   UNL     1      23.303   3.211  50.181  1.00  0.00     0.085 A 
ATOM     10  C   UNL     1      23.120   2.500  48.993  1.00  0.00     0.033 A 
ATOM     11  C   UNL     1      22.389   3.069  51.230  1.00  0.00     0.161 A 
ATOM     12  C   UNL     1      22.007   1.669  48.849  1.00  0.00     0.042 A 
ATOM     13  C   UNL     1      21.296   2.223  51.093  1.00  0.00     0.096 A 
ATOM     14  C   UNL     1      21.101   1.533  49.901  1.00  0.00     0.137 A 
ATOM     15  F   UNL     1      22.588   3.754  52.367  1.00  0.00    -0.204 F 
ATOM     16  F   UNL     1      20.060   0.705  49.750  1.00  0.00    -0.206 F 
BRANCH  13  17
ATOM     17  C   UNL     1      20.344   2.061  52.190  1.00  0.00     0.201 C 
ATOM     18  O   UNL     1      19.620   3.015  52.464  1.00  0.00    -0.288 OA
BRANCH  17  19
ATOM     19  C   UNL     1      20.295   0.787  52.902  1.00  0.00     0.050 A 
ATOM     20  C   UNL     1      19.176  -0.005  53.126  1.00  0.00     0.097 A 
ATOM     21  C   UNL     1      21.398   0.108  53.521  1.00  0.00     0.031 A 
ATOM     22  N   UNL     1      19.562  -1.119  53.829  1.00  0.00    -0.345 N 
ATOM     23  C   UNL     1      22.777   0.357  53.669  1.00  0.00     0.035 A 
ATOM     24  C   UNL     1      20.903  -1.065  54.081  1.00  0.00     0.138 A 
ATOM     25  C   UNL     1      23.532  -0.587  54.363  1.00  0.00     0.060 A 
ATOM     26  N   UNL     1      21.583  -2.007  54.759  1.00  0.00    -0.237 NA
ATOM     27  C   UNL     1      22.903  -1.718  54.872  1.00  0.00     0.134 A 
ATOM     28  H   UNL     1      18.966  -1.878  54.127  1.00  0.00     0.167 HD
ATOM     29  Cl  UNL     1      25.220  -0.351  54.585  1.00  0.00    -0.083 Cl
ENDBRANCH  17  19
ENDBRANCH  13  17
ENDBRANCH   1   9
TORSDOF 6
ENDMDL
MODEL 13
REMARK minimizedAffinity -7.49709654
REMARK minimizedRMSD -1
REMARK SMILES CCCS(=O)(=O)Nc1ccc(F)c(C(=O)c2c[nH]c3ncc(Cl)cc23)c1F
REMARK SMILES IDX 7 1 4 3 5 4 6 5 3 6 2 7 1 8 8 9 9 10 26 11 10 12 13 13 11 14
REMARK SMILES IDX 27 15 12 16 14 17 15 18 16 19 17 20 25 21 18 22 24 23 19 24
REMARK SMILES IDX 22 25 20 26 21 27 23 29
REMARK H PARENT 7 2 18 28
ROOT
ATOM      1  N   UNL     1      27.132   1.519  53.106  1.00  0.00    -0.281 N 
ATOM      2  H   UNL     1      27.484   1.818  54.023  1.00  0.00     0.180 HD
ENDROOT
BRANCH   1   3
ATOM      3  S   UNL     1      26.920  -0.169  53.193  1.00  0.00     0.232 S 
ATOM      4  O   UNL     1      27.981  -0.745  53.991  1.00  0.00    -0.207 OA
ATOM      5  O   UNL     1      26.679  -0.602  51.834  1.00  0.00    -0.207 OA
BRANCH   3   6
ATOM      6  C   UNL     1      25.386  -0.293  54.106  1.00  0.00     0.159 C 
BRANCH   6   7
ATOM      7  C   UNL     1      24.210  -0.734  53.243  1.00  0.00     0.015 C 
ATOM      8  C   UNL     1      22.885  -0.372  53.894  1.00  0.00     0.005 C 
ENDBRANCH   6   7
ENDBRANCH   3   6
ENDBRANCH   1   3
BRANCH   1   9
ATOM      9  C   UNL     1      25.979   2.252  52.676  1.00  0.00     0.085 A 
ATOM     10  C   UNL     1      25.060   2.707  53.624  1.00  0.00     0.033 A 
ATOM     11  C   UNL     1      25.848   2.627  51.335  1.00  0.00     0.161 A 
ATOM     12  C   UNL     1      23.995   3.518  53.221  1.00  0.00     0.042 A 
ATOM     13  C   UNL     1      24.802   3.452  50.942  1.00  0.00     0.096 A 
ATOM     14  C   UNL     1      23.873   3.887  51.881  1.00  0.00     0.137 A 
ATOM     15  F   UNL     1      26.747   2.185  50.442  1.00  0.00    -0.204 F 
ATOM     16  F   UNL     1      22.863   4.691  51.526  1.00  0.00    -0.206 F 
BRANCH  13  17
ATOM     17  C   UNL     1      24.667   3.857  49.544  1.00  0.00     0.201 C 
ATOM     18  O   UNL     1      24.203   3.039  48.754  1.00  0.00    -0.288 OA
BRANCH  17  19
ATOM     19  C   UNL     1      25.082   5.202  49.154  1.00  0.00     0.050 A 
ATOM     20  C   UNL     1      24.286   6.339  49.089  1.00  0.00     0.097 A 
ATOM     21  C   UNL     1      26.398   5.609  48.750  1.00  0.00     0.031 A 
ATOM     22  N   UNL     1      25.064   7.395  48.684  1.00  0.00    -0.345 N 
ATOM     23  C   UNL     1      27.644   4.971  48.591  1.00  0.00     0.035 A 
ATOM     24  C   UNL     1      26.344   6.970  48.470  1.00  0.00     0.138 A 
ATOM     25  C   UNL     1      28.719   5.750  48.166  1.00  0.00     0.060 A 
ATOM     26  N   UNL     1      27.345   7.769  48.057  1.00  0.00    -0.237 NA
ATOM     27  C   UNL     1      28.520   7.104  47.921  1.00  0.00     0.134 A 
ATOM     28  H   UNL     1      24.761   8.350  48.556  1.00  0.00     0.167 HD
ATOM     29  Cl  UNL     1      30.269   5.041  47.948  1.00  0.00    -0.083 Cl
ENDBRANCH  17  19
ENDBRANCH  13  17
ENDBRANCH   1   9
TORSDOF 6
ENDMDL
MODEL 14
REMARK minimizedAffinity -7.48715258
REMARK minimizedRMSD -1
REMARK SMILES CCCS(=O)(=O)Nc1ccc(F)c(C(=O)c2c[nH]c3ncc(Cl)cc23)c1F
REMARK SMILES IDX 7 1 4 3 5 4 6 5 3 6 2 7 1 8 8 9 9 10 26 11 10 12 13 13 11 14
REMARK SMILES IDX 27 15 12 16 14 17 15 18 16 19 17 20 25 21 18 22 24 23 19 24
REMARK SMILES IDX 22 25 20 26 21 27 23 29
REMARK H PARENT 7 2 18 28
ROOT
ATOM      1  N   UNL     1      26.838   0.334  52.491  1.00  0.00    -0.281 N 
ATOM      2  H   UNL     1      27.259   0.522  51.574  1.00  0.00     0.180 HD
ENDROOT
BRANCH   1   3
ATOM      3  S   UNL     1      27.752   1.204  53.635  1.00  0.00     0.232 S 
ATOM      4  O   UNL     1      26.860   1.824  54.590  1.00  0.00    -0.207 OA
ATOM      5  O   UNL     1      28.695   1.987  52.867  1.00  0.00    -0.207 OA
BRANCH   3   6
ATOM      6  C   UNL     1      28.647  -0.110  54.457  1.00  0.00     0.159 C 
BRANCH   6   7
ATOM      7  C   UNL     1      29.711  -0.752  53.576  1.00  0.00     0.015 C 
ATOM      8  C   UNL     1      29.360  -2.195  53.252  1.00  0.00     0.005 C 
ENDBRANCH   6   7
ENDBRANCH   3   6
ENDBRANCH   1   3
BRANCH   1   9
ATOM      9  C   UNL     1      25.428   0.586  52.527  1.00  0.00     0.085 A 
ATOM     10  C   UNL     1      24.582  -0.326  53.161  1.00  0.00     0.033 A 
ATOM     11  C   UNL     1      24.922   1.801  52.054  1.00  0.00     0.161 A 
ATOM     12  C   UNL     1      23.223  -0.030  53.297  1.00  0.00     0.042 A 
ATOM     13  C   UNL     1      23.576   2.103  52.212  1.00  0.00     0.096 A 
ATOM     14  C   UNL     1      22.728   1.185  52.823  1.00  0.00     0.137 A 
ATOM     15  F   UNL     1      25.754   2.667  51.455  1.00  0.00    -0.204 F 
ATOM     16  F   UNL     1      21.428   1.459  52.994  1.00  0.00    -0.206 F 
BRANCH  13  17
ATOM     17  C   UNL     1      23.043   3.376  51.730  1.00  0.00     0.201 C 
ATOM     18  O   UNL     1      22.894   4.280  52.549  1.00  0.00    -0.288 OA
BRANCH  17  19
ATOM     19  C   UNL     1      22.717   3.515  50.313  1.00  0.00     0.050 A 
ATOM     20  C   UNL     1      23.547   3.992  49.306  1.00  0.00     0.097 A 
ATOM     21  C   UNL     1      21.467   3.195  49.686  1.00  0.00     0.031 A 
ATOM     22  N   UNL     1      22.859   3.955  48.119  1.00  0.00    -0.345 N 
ATOM     23  C   UNL     1      20.225   2.687  50.118  1.00  0.00     0.035 A 
ATOM     24  C   UNL     1      21.597   3.481  48.331  1.00  0.00     0.138 A 
ATOM     25  C   UNL     1      19.230   2.513  49.158  1.00  0.00     0.060 A 
ATOM     26  N   UNL     1      20.673   3.333  47.363  1.00  0.00    -0.237 NA
ATOM     27  C   UNL     1      19.499   2.842  47.834  1.00  0.00     0.134 A 
ATOM     28  H   UNL     1      23.209   4.232  47.212  1.00  0.00     0.167 HD
ATOM     29  Cl  UNL     1      17.690   1.899  49.610  1.00  0.00    -0.083 Cl
ENDBRANCH  17  19
ENDBRANCH  13  17
ENDBRANCH   1   9
TORSDOF 6
ENDMDL
MODEL 15
REMARK minimizedAffinity -7.48685503
REMARK minimizedRMSD -1
REMARK SMILES CCCS(=O)(=O)Nc1ccc(F)c(C(=O)c2c[nH]c3ncc(Cl)cc23)c1F
REMARK SMILES IDX 7 1 4 3 5 4 6 5 3 6 2 7 1 8 8 9 9 10 26 11 10 12 13 13 11 14
REMARK SMILES IDX 27 15 12 16 14 17 15 18 16 19 17 20 25 21 18 22 24 23 19 24
REMARK SMILES IDX 22 25 20 26 21 27 23 29
REMARK H PARENT 7 2 18 28
ROOT
ATOM      1  N   UNL     1      26.126   7.325  50.675  1.00  0.00    -0.281 N 
ATOM      2  H   UNL     1      26.913   6.666  50.630  1.00  0.00     0.180 HD
ENDROOT
BRANCH   1   3
ATOM      3  S   UNL     1      26.354   8.444  49.413  1.00  0.00     0.232 S 
ATOM      4  O   UNL     1      26.285   9.788  49.946  1.00  0.00    -0.207 OA
ATOM      5  O   UNL     1      25.480   8.012  48.345  1.00  0.00    -0.207 OA
BRANCH   3   6
ATOM      6  C   UNL     1      28.044   8.107  48.931  1.00  0.00     0.159 C 
BRANCH   6   7
ATOM      7  C   UNL     1      28.154   7.087  47.805  1.00  0.00     0.015 C 
ATOM      8  C   UNL     1      28.403   5.690  48.349  1.00  0.00     0.005 C 
ENDBRANCH   6   7
ENDBRANCH   3   6
ENDBRANCH   1   3
BRANCH   1   9
ATOM      9  C   UNL     1      24.848   6.678  50.685  1.00  0.00     0.085 A 
ATOM     10  C   UNL     1      23.696   7.432  50.919  1.00  0.00     0.033 A 
ATOM     11  C   UNL     1      24.743   5.330  50.327  1.00  0.00     0.161 A 
ATOM     12  C   UNL     1      22.441   6.826  50.819  1.00  0.00     0.042 A 
ATOM     13  C   UNL     1      23.493   4.737  50.203  1.00  0.00     0.096 A 
ATOM     14  C   UNL     1      22.346   5.481  50.459  1.00  0.00     0.137 A 
ATOM     15  F   UNL     1      25.862   4.626  50.098  1.00  0.00    -0.204 F 
ATOM     16  F   UNL     1      21.131   4.933  50.338  1.00  0.00    -0.206 F 
BRANCH  13  17
ATOM     17  C   UNL     1      23.377   3.332  49.817  1.00  0.00     0.201 C 
ATOM     18  O   UNL     1      23.486   3.056  48.625  1.00  0.00    -0.288 OA
BRANCH  17  19
ATOM     19  C   UNL     1      23.140   2.331  50.854  1.00  0.00     0.050 A 
ATOM     20  C   UNL     1      21.913   1.822  51.263  1.00  0.00     0.097 A 
ATOM     21  C   UNL     1      24.134   1.684  51.663  1.00  0.00     0.031 A 
ATOM     22  N   UNL     1      22.132   0.900  52.256  1.00  0.00    -0.345 N 
ATOM     23  C   UNL     1      25.538   1.741  51.770  1.00  0.00     0.035 A 
ATOM     24  C   UNL     1      23.469   0.808  52.515  1.00  0.00     0.138 A 
ATOM     25  C   UNL     1      26.147   0.920  52.716  1.00  0.00     0.060 A 
ATOM     26  N   UNL     1      24.004  -0.004  53.445  1.00  0.00    -0.237 NA
ATOM     27  C   UNL     1      25.356   0.091  53.504  1.00  0.00     0.134 A 
ATOM     28  H   UNL     1      21.429   0.360  52.740  1.00  0.00     0.167 HD
ATOM     29  Cl  UNL     1      27.855   0.936  52.905  1.00  0.00    -0.083 Cl
ENDBRANCH  17  19
ENDBRANCH  13  17
ENDBRANCH   1   9
TORSDOF 6
ENDMDL
MODEL 16
REMARK minimizedAffinity -7.46706343
REMARK minimizedRMSD -1
REMARK SMILES CCCS(=O)(=O)Nc1ccc(F)c(C(=O)c2c[nH]c3ncc(Cl)cc23)c1F
REMARK SMILES IDX 7 1 4 3 5 4 6 5 3 6 2 7 1 8 8 9 9 10 26 11 10 12 13 13 11 14
REMARK SMILES IDX 27 15 12 16 14 17 15 18 16 19 17 20 25 21 18 22 24 23 19 24
REMARK SMILES IDX 22 25 20 26 21 27 23 29
REMARK H PARENT 7 2 18 28
ROOT
ATOM      1  N   UNL     1      23.586   2.348  52.920  1.00  0.00    -0.281 N 
ATOM      2  H   UNL     1      23.044   3.116  53.333  1.00  0.00     0.180 HD
ENDROOT
BRANCH   1   3
ATOM      3  S   UNL     1      22.458   1.212  52.340  1.00  0.00     0.232 S 
ATOM      4  O   UNL     1      22.519   1.171  50.895  1.00  0.00    -0.207 OA
ATOM      5  O   UNL     1      21.222   1.500  53.033  1.00  0.00    -0.207 OA
BRANCH   3   6
ATOM      6  C   UNL     1      23.123  -0.320  52.984  1.00  0.00     0.159 C 
BRANCH   6   7
ATOM      7  C   UNL     1      22.064  -1.215  53.614  1.00  0.00     0.015 C 
ATOM      8  C   UNL     1      22.273  -1.344  55.114  1.00  0.00     0.005 C 
ENDBRANCH   6   7
ENDBRANCH   3   6
ENDBRANCH   1   3
BRANCH   1   9
ATOM      9  C   UNL     1      24.548   2.791  51.955  1.00  0.00     0.085 A 
ATOM     10  C   UNL     1      25.676   2.009  51.698  1.00  0.00     0.033 A 
ATOM     11  C   UNL     1      24.289   3.926  51.179  1.00  0.00     0.161 A 
ATOM     12  C   UNL     1      26.557   2.382  50.679  1.00  0.00     0.042 A 
ATOM     13  C   UNL     1      25.153   4.279  50.151  1.00  0.00     0.096 A 
ATOM     14  C   UNL     1      26.289   3.514  49.909  1.00  0.00     0.137 A 
ATOM     15  F   UNL     1      23.194   4.658  51.437  1.00  0.00    -0.204 F 
ATOM     16  F   UNL     1      27.132   3.831  48.918  1.00  0.00    -0.206 F 
BRANCH  13  17
ATOM     17  C   UNL     1      24.881   5.456  49.329  1.00  0.00     0.201 C 
ATOM     18  O   UNL     1      24.144   5.316  48.356  1.00  0.00    -0.288 OA
BRANCH  17  19
ATOM     19  C   UNL     1      25.489   6.732  49.697  1.00  0.00     0.050 A 
ATOM     20  C   UNL     1      24.973   7.686  50.565  1.00  0.00     0.097 A 
ATOM     21  C   UNL     1      26.739   7.254  49.223  1.00  0.00     0.031 A 
ATOM     22  N   UNL     1      25.858   8.733  50.640  1.00  0.00    -0.345 N 
ATOM     23  C   UNL     1      27.744   6.812  48.339  1.00  0.00     0.035 A 
ATOM     24  C   UNL     1      26.929   8.491  49.830  1.00  0.00     0.138 A 
ATOM     25  C   UNL     1      28.843   7.646  48.143  1.00  0.00     0.060 A 
ATOM     26  N   UNL     1      27.967   9.335  49.677  1.00  0.00    -0.237 NA
ATOM     27  C   UNL     1      28.903   8.860  48.817  1.00  0.00     0.134 A 
ATOM     28  H   UNL     1      25.755   9.568  51.200  1.00  0.00     0.167 HD
ATOM     29  Cl  UNL     1      30.108   7.174  47.078  1.00  0.00    -0.083 Cl
ENDBRANCH  17  19
ENDBRANCH  13  17
ENDBRANCH   1   9
TORSDOF 6
ENDMDL
MODEL 17
REMARK minimizedAffinity -7.4426055
REMARK minimizedRMSD -1
REMARK SMILES CCCS(=O)(=O)Nc1ccc(F)c(C(=O)c2c[nH]c3ncc(Cl)cc23)c1F
REMARK SMILES IDX 7 1 4 3 5 4 6 5 3 6 2 7 1 8 8 9 9 10 26 11 10 12 13 13 11 14
REMARK SMILES IDX 27 15 12 16 14 17 15 18 16 19 17 20 25 21 18 22 24 23 19 24
REMARK SMILES IDX 22 25 20 26 21 27 23 29
REMARK H PARENT 7 2 18 28
ROOT
ATOM      1  N   UNL     1      26.407   0.773  52.169  1.00  0.00    -0.281 N 
ATOM      2  H   UNL     1      26.507   1.274  51.278  1.00  0.00     0.180 HD
ENDROOT
BRANCH   1   3
ATOM      3  S   UNL     1      27.347   1.618  53.311  1.00  0.00     0.232 S 
ATOM      4  O   UNL     1      26.477   2.391  54.170  1.00  0.00    -0.207 OA
ATOM      5  O   UNL     1      28.409   2.245  52.555  1.00  0.00    -0.207 OA
BRANCH   3   6
ATOM      6  C   UNL     1      28.049   0.276  54.265  1.00  0.00     0.159 C 
BRANCH   6   7
ATOM      7  C   UNL     1      29.450  -0.114  53.811  1.00  0.00     0.015 C 
ATOM      8  C   UNL     1      29.502  -1.569  53.375  1.00  0.00     0.005 C 
ENDBRANCH   6   7
ENDBRANCH   3   6
ENDBRANCH   1   3
BRANCH   1   9
ATOM      9  C   UNL     1      25.042   0.562  52.548  1.00  0.00     0.085 A 
ATOM     10  C   UNL     1      24.728  -0.456  53.450  1.00  0.00     0.033 A 
ATOM     11  C   UNL     1      24.052   1.455  52.125  1.00  0.00     0.161 A 
ATOM     12  C   UNL     1      23.415  -0.593  53.908  1.00  0.00     0.042 A 
ATOM     13  C   UNL     1      22.753   1.332  52.601  1.00  0.00     0.096 A 
ATOM     14  C   UNL     1      22.434   0.304  53.482  1.00  0.00     0.137 A 
ATOM     15  F   UNL     1      24.378   2.432  51.264  1.00  0.00    -0.204 F 
ATOM     16  F   UNL     1      21.191   0.171  53.960  1.00  0.00    -0.206 F 
BRANCH  13  17
ATOM     17  C   UNL     1      21.717   2.269  52.173  1.00  0.00     0.201 C 
ATOM     18  O   UNL     1      21.649   3.350  52.752  1.00  0.00    -0.288 OA
BRANCH  17  19
ATOM     19  C   UNL     1      20.821   1.884  51.086  1.00  0.00     0.050 A 
ATOM     20  C   UNL     1      20.956   2.196  49.738  1.00  0.00     0.097 A 
ATOM     21  C   UNL     1      19.615   1.115  51.202  1.00  0.00     0.031 A 
ATOM     22  N   UNL     1      19.904   1.639  49.054  1.00  0.00    -0.345 N 
ATOM     23  C   UNL     1      18.908   0.505  52.257  1.00  0.00     0.035 A 
ATOM     24  C   UNL     1      19.080   0.986  49.924  1.00  0.00     0.138 A 
ATOM     25  C   UNL     1      17.734  -0.176  51.940  1.00  0.00     0.060 A 
ATOM     26  N   UNL     1      17.955   0.343  49.561  1.00  0.00    -0.237 NA
ATOM     27  C   UNL     1      17.316  -0.225  50.615  1.00  0.00     0.134 A 
ATOM     28  H   UNL     1      19.741   1.690  48.058  1.00  0.00     0.167 HD
ATOM     29  Cl  UNL     1      16.818  -0.945  53.174  1.00  0.00    -0.083 Cl
ENDBRANCH  17  19
ENDBRANCH  13  17
ENDBRANCH   1   9
TORSDOF 6
ENDMDL
MODEL 18
REMARK minimizedAffinity -7.43730593
REMARK minimizedRMSD -1
REMARK SMILES CCCS(=O)(=O)Nc1ccc(F)c(C(=O)c2c[nH]c3ncc(Cl)cc23)c1F
REMARK SMILES IDX 7 1 4 3 5 4 6 5 3 6 2 7 1 8 8 9 9 10 26 11 10 12 13 13 11 14
REMARK SMILES IDX 27 15 12 16 14 17 15 18 16 19 17 20 25 21 18 22 24 23 19 24
REMARK SMILES IDX 22 25 20 26 21 27 23 29
REMARK H PARENT 7 2 18 28
ROOT
ATOM      1  N   UNL     1      32.593   4.849  48.825  1.00  0.00    -0.281 N 
ATOM      2  H   UNL     1      32.078   4.055  48.426  1.00  0.00     0.180 HD
ENDROOT
BRANCH   1   3
ATOM      3  S   UNL     1      34.068   4.948  47.979  1.00  0.00     0.232 S 
ATOM      4  O   UNL     1      35.150   5.132  48.922  1.00  0.00    -0.207 OA
ATOM      5  O   UNL     1      33.839   5.886  46.903  1.00  0.00    -0.207 OA
BRANCH   3   6
ATOM      6  C   UNL     1      34.193   3.306  47.279  1.00  0.00     0.159 C 
BRANCH   6   7
ATOM      7  C   UNL     1      33.226   2.311  47.907  1.00  0.00     0.015 C 
ATOM      8  C   UNL     1      32.459   1.543  46.844  1.00  0.00     0.005 C 
ENDBRANCH   6   7
ENDBRANCH   3   6
ENDBRANCH   1   3
BRANCH   1   9
ATOM      9  C   UNL     1      31.830   6.061  48.852  1.00  0.00     0.085 A 
ATOM     10  C   UNL     1      32.336   7.179  49.517  1.00  0.00     0.033 A 
ATOM     11  C   UNL     1      30.654   6.164  48.101  1.00  0.00     0.161 A 
ATOM     12  C   UNL     1      31.648   8.394  49.450  1.00  0.00     0.042 A 
ATOM     13  C   UNL     1      29.986   7.379  48.016  1.00  0.00     0.096 A 
ATOM     14  C   UNL     1      30.477   8.487  48.698  1.00  0.00     0.137 A 
ATOM     15  F   UNL     1      30.190   5.079  47.461  1.00  0.00    -0.204 F 
ATOM     16  F   UNL     1      29.854   9.670  48.623  1.00  0.00    -0.206 F 
BRANCH  13  17
ATOM     17  C   UNL     1      28.764   7.496  47.223  1.00  0.00     0.201 C 
ATOM     18  O   UNL     1      28.879   7.573  46.003  1.00  0.00    -0.288 OA
BRANCH  17  19
ATOM     19  C   UNL     1      27.475   7.514  47.910  1.00  0.00     0.050 A 
ATOM     20  C   UNL     1      26.621   8.600  48.061  1.00  0.00     0.097 A 
ATOM     21  C   UNL     1      26.842   6.410  48.573  1.00  0.00     0.031 A 
ATOM     22  N   UNL     1      25.515   8.191  48.764  1.00  0.00    -0.345 N 
ATOM     23  C   UNL     1      27.159   5.055  48.799  1.00  0.00     0.035 A 
ATOM     24  C   UNL     1      25.634   6.871  49.086  1.00  0.00     0.138 A 
ATOM     25  C   UNL     1      26.243   4.288  49.515  1.00  0.00     0.060 A 
ATOM     26  N   UNL     1      24.715   6.177  49.783  1.00  0.00    -0.237 NA
ATOM     27  C   UNL     1      25.071   4.882  49.970  1.00  0.00     0.134 A 
ATOM     28  H   UNL     1      24.720   8.761  49.018  1.00  0.00     0.167 HD
ATOM     29  Cl  UNL     1      26.562   2.629  49.829  1.00  0.00    -0.083 Cl
ENDBRANCH  17  19
ENDBRANCH  13  17
ENDBRANCH   1   9
TORSDOF 6
ENDMDL
MODEL 19
REMARK minimizedAffinity -7.43281698
REMARK minimizedRMSD -1
REMARK SMILES CCCS(=O)(=O)Nc1ccc(F)c(C(=O)c2c[nH]c3ncc(Cl)cc23)c1F
REMARK SMILES IDX 7 1 4 3 5 4 6 5 3 6 2 7 1 8 8 9 9 10 26 11 10 12 13 13 11 14
REMARK SMILES IDX 27 15 12 16 14 17 15 18 16 19 17 20 25 21 18 22 24 23 19 24
REMARK SMILES IDX 22 25 20 26 21 27 23 29
REMARK H PARENT 7 2 18 28
ROOT
ATOM      1  N   UNL     1      25.576   0.280  52.980  1.00  0.00    -0.281 N 
ATOM      2  H   UNL     1      25.946  -0.523  52.458  1.00  0.00     0.180 HD
ENDROOT
BRANCH   1   3
ATOM      3  S   UNL     1      26.467   0.373  54.428  1.00  0.00     0.232 S 
ATOM      4  O   UNL     1      25.921  -0.562  55.387  1.00  0.00    -0.207 OA
ATOM      5  O   UNL     1      26.576   1.783  54.729  1.00  0.00    -0.207 OA
BRANCH   3   6
ATOM      6  C   UNL     1      28.072  -0.219  53.903  1.00  0.00     0.159 C 
BRANCH   6   7
ATOM      7  C   UNL     1      27.992  -1.402  52.948  1.00  0.00     0.015 C 
ATOM      8  C   UNL     1      29.104  -2.403  53.217  1.00  0.00     0.005 C 
ENDBRANCH   6   7
ENDBRANCH   3   6
ENDBRANCH   1   3
BRANCH   1   9
ATOM      9  C   UNL     1      25.546   1.488  52.210  1.00  0.00     0.085 A 
ATOM     10  C   UNL     1      26.532   1.715  51.248  1.00  0.00     0.033 A 
ATOM     11  C   UNL     1      24.462   2.364  52.325  1.00  0.00     0.161 A 
ATOM     12  C   UNL     1      26.443   2.837  50.419  1.00  0.00     0.042 A 
ATOM     13  C   UNL     1      24.364   3.464  51.482  1.00  0.00     0.096 A 
ATOM     14  C   UNL     1      25.358   3.705  50.540  1.00  0.00     0.137 A 
ATOM     15  F   UNL     1      23.521   2.122  53.250  1.00  0.00    -0.204 F 
ATOM     16  F   UNL     1      25.279   4.754  49.711  1.00  0.00    -0.206 F 
BRANCH  13  17
ATOM     17  C   UNL     1      23.227   4.377  51.589  1.00  0.00     0.201 C 
ATOM     18  O   UNL     1      23.431   5.491  52.064  1.00  0.00    -0.288 OA
BRANCH  17  19
ATOM     19  C   UNL     1      21.915   3.929  51.130  1.00  0.00     0.050 A 
ATOM     20  C   UNL     1      20.803   3.649  51.915  1.00  0.00     0.097 A 
ATOM     21  C   UNL     1      21.522   3.679  49.773  1.00  0.00     0.031 A 
ATOM     22  N   UNL     1      19.773   3.264  51.093  1.00  0.00    -0.345 N 
ATOM     23  C   UNL     1      22.149   3.755  48.513  1.00  0.00     0.035 A 
ATOM     24  C   UNL     1      20.192   3.271  49.794  1.00  0.00     0.138 A 
ATOM     25  C   UNL     1      21.392   3.416  47.393  1.00  0.00     0.060 A 
ATOM     26  N   UNL     1      19.415   2.932  48.748  1.00  0.00    -0.237 NA
ATOM     27  C   UNL     1      20.069   3.024  47.563  1.00  0.00     0.134 A 
ATOM     28  H   UNL     1      18.839   3.008  51.380  1.00  0.00     0.167 HD
ATOM     29  Cl  UNL     1      22.089   3.484  45.824  1.00  0.00    -0.083 Cl
ENDBRANCH  17  19
ENDBRANCH  13  17
ENDBRANCH   1   9
TORSDOF 6
ENDMDL
MODEL 20
REMARK minimizedAffinity -7.33924294
REMARK minimizedRMSD -1
REMARK SMILES CCCS(=O)(=O)Nc1ccc(F)c(C(=O)c2c[nH]c3ncc(Cl)cc23)c1F
REMARK SMILES IDX 7 1 4 3 5 4 6 5 3 6 2 7 1 8 8 9 9 10 26 11 10 12 13 13 11 14
REMARK SMILES IDX 27 15 12 16 14 17 15 18 16 19 17 20 25 21 18 22 24 23 19 24
REMARK SMILES IDX 22 25 20 26 21 27 23 29
REMARK H PARENT 7 2 18 28
ROOT
ATOM      1  N   UNL     1      25.453   2.832  52.154  1.00  0.00    -0.281 N 
ATOM      2  H   UNL     1      26.064   3.613  52.423  1.00  0.00     0.180 HD
ENDROOT
BRANCH   1   3
ATOM      3  S   UNL     1      25.752   1.576  53.264  1.00  0.00     0.232 S 
ATOM      4  O   UNL     1      24.524   0.848  53.505  1.00  0.00    -0.207 OA
ATOM      5  O   UNL     1      26.494   2.180  54.348  1.00  0.00    -0.207 OA
BRANCH   3   6
ATOM      6  C   UNL     1      26.864   0.528  52.333  1.00  0.00     0.159 C 
BRANCH   6   7
ATOM      7  C   UNL     1      27.216  -0.765  53.057  1.00  0.00     0.015 C 
ATOM      8  C   UNL     1      28.663  -0.759  53.523  1.00  0.00     0.005 C 
ENDBRANCH   6   7
ENDBRANCH   3   6
ENDBRANCH   1   3
BRANCH   1   9
ATOM      9  C   UNL     1      24.078   3.211  52.025  1.00  0.00     0.085 A 
ATOM     10  C   UNL     1      23.608   4.338  52.701  1.00  0.00     0.033 A 
ATOM     11  C   UNL     1      23.249   2.538  51.121  1.00  0.00     0.161 A 
ATOM     12  C   UNL     1      22.297   4.775  52.489  1.00  0.00     0.042 A 
ATOM     13  C   UNL     1      21.955   2.990  50.893  1.00  0.00     0.096 A 
ATOM     14  C   UNL     1      21.478   4.099  51.584  1.00  0.00     0.137 A 
ATOM     15  F   UNL     1      23.724   1.462  50.474  1.00  0.00    -0.204 F 
ATOM     16  F   UNL     1      20.237   4.556  51.375  1.00  0.00    -0.206 F 
BRANCH  13  17
ATOM     17  C   UNL     1      21.089   2.299  49.941  1.00  0.00     0.201 C 
ATOM     18  O   UNL     1      21.358   2.398  48.747  1.00  0.00    -0.288 OA
BRANCH  17  19
ATOM     19  C   UNL     1      19.955   1.528  50.446  1.00  0.00     0.050 A 
ATOM     20  C   UNL     1      18.666   1.496  49.928  1.00  0.00     0.097 A 
ATOM     21  C   UNL     1      19.952   0.658  51.588  1.00  0.00     0.031 A 
ATOM     22  N   UNL     1      17.909   0.644  50.693  1.00  0.00    -0.345 N 
ATOM     23  C   UNL     1      20.902   0.251  52.546  1.00  0.00     0.035 A 
ATOM     24  C   UNL     1      18.669   0.132  51.705  1.00  0.00     0.138 A 
ATOM     25  C   UNL     1      20.483  -0.642  53.531  1.00  0.00     0.060 A 
ATOM     26  N   UNL     1      18.212  -0.729  52.632  1.00  0.00    -0.237 NA
ATOM     27  C   UNL     1      19.166  -1.087  53.527  1.00  0.00     0.134 A 
ATOM     28  H   UNL     1      16.936   0.414  50.552  1.00  0.00     0.167 HD
ATOM     29  Cl  UNL     1      21.586  -1.183  54.733  1.00  0.00    -0.083 Cl
ENDBRANCH  17  19
ENDBRANCH  13  17
ENDBRANCH   1   9
TORSDOF 6
ENDMDL
