MODEL 1
REMARK minimizedAffinity -8.56303501
REMARK minimizedRMSD -1
REMARK SMILES CN(C)C/C=C/C(=O)Nc1cc2c(Nc3ccc(F)c(Cl)c3)ncnc2cc1O[C@H]1CCOC1
REMARK SMILES IDX 7 1 8 2 9 3 6 5 5 6 4 7 2 8 1 9 3 10 10 11 11 12 28 13 12 14
REMARK SMILES IDX 27 15 13 16 26 17 23 18 25 19 24 20 29 21 30 22 31 23 34 24
REMARK SMILES IDX 32 25 33 26 14 27 15 29 16 30 22 31 17 32 20 33 18 34 21 35
REMARK SMILES IDX 19 36
REMARK H PARENT 9 4 14 28
ROOT
ATOM      1  C   UNL     1      25.421   5.118  49.755  1.00  0.00     0.248 C 
ATOM      2  O   UNL     1      24.847   5.771  50.618  1.00  0.00    -0.270 OA
ATOM      3  N   UNL     1      25.102   3.856  49.321  1.00  0.00    -0.319 N 
ATOM      4  H   UNL     1      25.575   3.500  48.497  1.00  0.00     0.170 HD
ENDROOT
BRANCH   1   5
ATOM      5  C   UNL     1      26.542   5.749  49.005  1.00  0.00     0.068 C 
ATOM      6  C   UNL     1      27.688   5.114  48.708  1.00  0.00    -0.006 C 
BRANCH   6   7
ATOM      7  C   UNL     1      28.911   5.629  47.994  1.00  0.00     0.111 C 
BRANCH   7   8
ATOM      8  N   UNL     1      30.256   5.335  48.466  1.00  0.00    -0.306 NA
ATOM      9  C   UNL     1      30.926   6.441  49.132  1.00  0.00     0.105 C 
ATOM     10  C   UNL     1      31.106   4.631  47.520  1.00  0.00     0.105 C 
ENDBRANCH   7   8
ENDBRANCH   6   7
ENDBRANCH   1   5
BRANCH   3  11
ATOM     11  C   UNL     1      24.125   2.978  49.839  1.00  0.00     0.085 A 
ATOM     12  C   UNL     1      24.257   2.309  51.054  1.00  0.00     0.044 A 
ATOM     13  C   UNL     1      22.973   2.770  49.063  1.00  0.00     0.145 A 
ATOM     14  C   UNL     1      23.240   1.440  51.525  1.00  0.00     0.045 A 
ATOM     15  C   UNL     1      21.988   1.891  49.518  1.00  0.00     0.077 A 
ATOM     16  C   UNL     1      23.270   0.742  52.750  1.00  0.00     0.141 A 
ATOM     17  C   UNL     1      22.103   1.230  50.735  1.00  0.00     0.080 A 
ATOM     18  N   UNL     1      22.277  -0.089  53.115  1.00  0.00    -0.219 NA
ATOM     19  N   UNL     1      21.111   0.413  51.099  1.00  0.00    -0.236 NA
ATOM     20  C   UNL     1      21.249  -0.213  52.272  1.00  0.00     0.224 A 
BRANCH  13  21
ATOM     21  O   UNL     1      22.928   3.473  47.883  1.00  0.00    -0.486 OA
BRANCH  21  22
ATOM     22  C   UNL     1      21.772   4.273  47.599  1.00  0.00     0.201 C 
ATOM     23  C   UNL     1      21.989   5.625  48.244  1.00  0.00     0.076 C 
ATOM     24  C   UNL     1      21.710   4.650  46.123  1.00  0.00     0.205 C 
ATOM     25  C   UNL     1      22.881   6.322  47.240  1.00  0.00     0.164 C 
ATOM     26  O   UNL     1      22.496   5.844  45.947  1.00  0.00    -0.377 OA
ENDBRANCH  21  22
ENDBRANCH  13  21
BRANCH  16  27
ATOM     27  N   UNL     1      24.384   0.918  53.616  1.00  0.00    -0.340 N 
ATOM     28  H   UNL     1      24.071   0.878  54.581  1.00  0.00     0.168 HD
BRANCH  27  29
ATOM     29  C   UNL     1      25.709   0.447  53.471  1.00  0.00     0.041 A 
ATOM     30  C   UNL     1      25.914  -0.834  52.929  1.00  0.00     0.029 A 
ATOM     31  C   UNL     1      26.824   1.150  53.946  1.00  0.00     0.049 A 
ATOM     32  C   UNL     1      27.198  -1.370  52.808  1.00  0.00     0.043 A 
ATOM     33  C   UNL     1      28.110   0.616  53.827  1.00  0.00     0.078 A 
ATOM     34  C   UNL     1      28.291  -0.639  53.255  1.00  0.00     0.141 A 
ATOM     35  Cl  UNL     1      29.460   1.516  54.404  1.00  0.00    -0.081 Cl
ATOM     36  F   UNL     1      29.516  -1.171  53.133  1.00  0.00    -0.205 F 
ENDBRANCH  27  29
ENDBRANCH  16  27
ENDBRANCH   3  11
TORSDOF 8
ENDMDL
MODEL 2
REMARK minimizedAffinity -8.54303837
REMARK minimizedRMSD -1
REMARK SMILES CN(C)C/C=C/C(=O)Nc1cc2c(Nc3ccc(F)c(Cl)c3)ncnc2cc1O[C@H]1CCOC1
REMARK SMILES IDX 7 1 8 2 9 3 6 5 5 6 4 7 2 8 1 9 3 10 10 11 11 12 28 13 12 14
REMARK SMILES IDX 27 15 13 16 26 17 23 18 25 19 24 20 29 21 30 22 31 23 34 24
REMARK SMILES IDX 32 25 33 26 14 27 15 29 16 30 22 31 17 32 20 33 18 34 21 35
REMARK SMILES IDX 19 36
REMARK H PARENT 9 4 14 28
ROOT
ATOM      1  C   UNL     1      26.652   4.766  49.078  1.00  0.00     0.248 C 
ATOM      2  O   UNL     1      27.408   3.802  49.097  1.00  0.00    -0.270 OA
ATOM      3  N   UNL     1      25.366   4.822  49.552  1.00  0.00    -0.319 N 
ATOM      4  H   UNL     1      24.915   5.730  49.603  1.00  0.00     0.170 HD
ENDROOT
BRANCH   1   5
ATOM      5  C   UNL     1      27.166   6.069  48.571  1.00  0.00     0.068 C 
ATOM      6  C   UNL     1      28.387   6.227  48.031  1.00  0.00    -0.006 C 
BRANCH   6   7
ATOM      7  C   UNL     1      29.050   7.477  47.514  1.00  0.00     0.111 C 
BRANCH   7   8
ATOM      8  N   UNL     1      29.891   8.307  48.362  1.00  0.00    -0.306 NA
ATOM      9  C   UNL     1      30.965   7.598  49.041  1.00  0.00     0.105 C 
ATOM     10  C   UNL     1      29.179   9.238  49.223  1.00  0.00     0.105 C 
ENDBRANCH   7   8
ENDBRANCH   6   7
ENDBRANCH   1   5
BRANCH   3  11
ATOM     11  C   UNL     1      24.579   3.767  50.061  1.00  0.00     0.085 A 
ATOM     12  C   UNL     1      24.912   3.037  51.200  1.00  0.00     0.044 A 
ATOM     13  C   UNL     1      23.408   3.442  49.356  1.00  0.00     0.145 A 
ATOM     14  C   UNL     1      24.079   1.988  51.666  1.00  0.00     0.045 A 
ATOM     15  C   UNL     1      22.608   2.389  49.803  1.00  0.00     0.077 A 
ATOM     16  C   UNL     1      24.318   1.212  52.820  1.00  0.00     0.141 A 
ATOM     17  C   UNL     1      22.923   1.663  50.946  1.00  0.00     0.080 A 
ATOM     18  N   UNL     1      23.494   0.213  53.182  1.00  0.00    -0.219 NA
ATOM     19  N   UNL     1      22.098   0.678  51.308  1.00  0.00    -0.236 NA
ATOM     20  C   UNL     1      22.428  -0.006  52.409  1.00  0.00     0.224 A 
BRANCH  13  21
ATOM     21  O   UNL     1      23.159   4.216  48.248  1.00  0.00    -0.486 OA
BRANCH  21  22
ATOM     22  C   UNL     1      21.825   4.259  47.722  1.00  0.00     0.201 C 
ATOM     23  C   UNL     1      21.535   5.696  47.345  1.00  0.00     0.076 C 
ATOM     24  C   UNL     1      21.744   3.569  46.365  1.00  0.00     0.205 C 
ATOM     25  C   UNL     1      22.211   5.818  45.997  1.00  0.00     0.164 C 
ATOM     26  O   UNL     1      22.098   4.540  45.362  1.00  0.00    -0.377 OA
ENDBRANCH  21  22
ENDBRANCH  13  21
BRANCH  16  27
ATOM     27  N   UNL     1      25.463   1.494  53.615  1.00  0.00    -0.340 N 
ATOM     28  H   UNL     1      25.167   1.758  54.549  1.00  0.00     0.168 HD
BRANCH  27  29
ATOM     29  C   UNL     1      26.723   0.855  53.619  1.00  0.00     0.041 A 
ATOM     30  C   UNL     1      27.873   1.634  53.833  1.00  0.00     0.029 A 
ATOM     31  C   UNL     1      26.891  -0.502  53.310  1.00  0.00     0.049 A 
ATOM     32  C   UNL     1      29.148   1.063  53.799  1.00  0.00     0.043 A 
ATOM     33  C   UNL     1      28.165  -1.074  53.274  1.00  0.00     0.078 A 
ATOM     34  C   UNL     1      29.287  -0.290  53.524  1.00  0.00     0.141 A 
ATOM     35  Cl  UNL     1      28.333  -2.749  52.909  1.00  0.00    -0.081 Cl
ATOM     36  F   UNL     1      30.518  -0.820  53.493  1.00  0.00    -0.205 F 
ENDBRANCH  27  29
ENDBRANCH  16  27
ENDBRANCH   3  11
TORSDOF 8
ENDMDL
MODEL 3
REMARK minimizedAffinity -8.41579342
REMARK minimizedRMSD -1
REMARK SMILES CN(C)C/C=C/C(=O)Nc1cc2c(Nc3ccc(F)c(Cl)c3)ncnc2cc1O[C@H]1CCOC1
REMARK SMILES IDX 7 1 8 2 9 3 6 5 5 6 4 7 2 8 1 9 3 10 10 11 11 12 28 13 12 14
REMARK SMILES IDX 27 15 13 16 26 17 23 18 25 19 24 20 29 21 30 22 31 23 34 24
REMARK SMILES IDX 32 25 33 26 14 27 15 29 16 30 22 31 17 32 20 33 18 34 21 35
REMARK SMILES IDX 19 36
REMARK H PARENT 9 4 14 28
ROOT
ATOM      1  C   UNL     1      30.423   5.570  48.201  1.00  0.00     0.248 C 
ATOM      2  O   UNL     1      30.745   5.471  49.379  1.00  0.00    -0.270 OA
ATOM      3  N   UNL     1      29.250   6.076  47.701  1.00  0.00    -0.319 N 
ATOM      4  H   UNL     1      29.186   6.232  46.700  1.00  0.00     0.170 HD
ENDROOT
BRANCH   1   5
ATOM      5  C   UNL     1      31.413   5.192  47.155  1.00  0.00     0.068 C 
ATOM      6  C   UNL     1      31.869   3.940  46.980  1.00  0.00    -0.006 C 
BRANCH   6   7
ATOM      7  C   UNL     1      32.886   3.420  45.997  1.00  0.00     0.111 C 
BRANCH   7   8
ATOM      8  N   UNL     1      34.274   3.198  46.374  1.00  0.00    -0.306 NA
ATOM      9  C   UNL     1      34.568   3.414  47.782  1.00  0.00     0.105 C 
ATOM     10  C   UNL     1      35.261   3.783  45.481  1.00  0.00     0.105 C 
ENDBRANCH   7   8
ENDBRANCH   6   7
ENDBRANCH   1   5
BRANCH   3  11
ATOM     11  C   UNL     1      28.105   6.487  48.415  1.00  0.00     0.085 A 
ATOM     12  C   UNL     1      27.089   5.618  48.809  1.00  0.00     0.044 A 
ATOM     13  C   UNL     1      27.996   7.853  48.721  1.00  0.00     0.145 A 
ATOM     14  C   UNL     1      25.962   6.089  49.529  1.00  0.00     0.045 A 
ATOM     15  C   UNL     1      26.869   8.316  49.404  1.00  0.00     0.077 A 
ATOM     16  C   UNL     1      24.899   5.285  49.993  1.00  0.00     0.141 A 
ATOM     17  C   UNL     1      25.857   7.456  49.815  1.00  0.00     0.080 A 
ATOM     18  N   UNL     1      23.848   5.812  50.645  1.00  0.00    -0.219 NA
ATOM     19  N   UNL     1      24.819   7.981  50.470  1.00  0.00    -0.236 NA
ATOM     20  C   UNL     1      23.858   7.131  50.850  1.00  0.00     0.224 A 
BRANCH  13  21
ATOM     21  O   UNL     1      29.044   8.634  48.295  1.00  0.00    -0.486 OA
BRANCH  21  22
ATOM     22  C   UNL     1      29.739   9.441  49.256  1.00  0.00     0.201 C 
ATOM     23  C   UNL     1      31.168   8.945  49.312  1.00  0.00     0.076 C 
ATOM     24  C   UNL     1      29.932  10.864  48.746  1.00  0.00     0.205 C 
ATOM     25  C   UNL     1      31.789   9.615  48.106  1.00  0.00     0.164 C 
ATOM     26  O   UNL     1      31.139  10.883  47.959  1.00  0.00    -0.377 OA
ENDBRANCH  21  22
ENDBRANCH  13  21
BRANCH  16  27
ATOM     27  N   UNL     1      24.943   3.884  49.758  1.00  0.00    -0.340 N 
ATOM     28  H   UNL     1      25.405   3.705  48.872  1.00  0.00     0.168 HD
BRANCH  27  29
ATOM     29  C   UNL     1      25.141   2.831  50.679  1.00  0.00     0.041 A 
ATOM     30  C   UNL     1      26.452   2.380  50.916  1.00  0.00     0.029 A 
ATOM     31  C   UNL     1      24.084   2.140  51.286  1.00  0.00     0.049 A 
ATOM     32  C   UNL     1      26.703   1.311  51.779  1.00  0.00     0.043 A 
ATOM     33  C   UNL     1      24.333   1.069  52.149  1.00  0.00     0.078 A 
ATOM     34  C   UNL     1      25.640   0.663  52.395  1.00  0.00     0.141 A 
ATOM     35  Cl  UNL     1      23.010   0.254  52.892  1.00  0.00    -0.081 Cl
ATOM     36  F   UNL     1      25.900  -0.363  53.218  1.00  0.00    -0.205 F 
ENDBRANCH  27  29
ENDBRANCH  16  27
ENDBRANCH   3  11
TORSDOF 8
ENDMDL
MODEL 4
REMARK minimizedAffinity -8.3881588
REMARK minimizedRMSD -1
REMARK SMILES CN(C)C/C=C/C(=O)Nc1cc2c(Nc3ccc(F)c(Cl)c3)ncnc2cc1O[C@H]1CCOC1
REMARK SMILES IDX 7 1 8 2 9 3 6 5 5 6 4 7 2 8 1 9 3 10 10 11 11 12 28 13 12 14
REMARK SMILES IDX 27 15 13 16 26 17 23 18 25 19 24 20 29 21 30 22 31 23 34 24
REMARK SMILES IDX 32 25 33 26 14 27 15 29 16 30 22 31 17 32 20 33 18 34 21 35
REMARK SMILES IDX 19 36
REMARK H PARENT 9 4 14 28
ROOT
ATOM      1  C   UNL     1      26.313   4.346  49.324  1.00  0.00     0.248 C 
ATOM      2  O   UNL     1      27.006   3.493  49.866  1.00  0.00    -0.270 OA
ATOM      3  N   UNL     1      24.943   4.378  49.249  1.00  0.00    -0.319 N 
ATOM      4  H   UNL     1      24.503   5.223  48.899  1.00  0.00     0.170 HD
ENDROOT
BRANCH   1   5
ATOM      5  C   UNL     1      26.977   5.545  48.742  1.00  0.00     0.068 C 
ATOM      6  C   UNL     1      28.278   5.584  48.405  1.00  0.00    -0.006 C 
BRANCH   6   7
ATOM      7  C   UNL     1      29.088   6.724  47.845  1.00  0.00     0.111 C 
BRANCH   7   8
ATOM      8  N   UNL     1      30.450   6.988  48.286  1.00  0.00    -0.306 NA
ATOM      9  C   UNL     1      31.114   5.864  48.928  1.00  0.00     0.105 C 
ATOM     10  C   UNL     1      30.643   8.249  48.984  1.00  0.00     0.105 C 
ENDBRANCH   7   8
ENDBRANCH   6   7
ENDBRANCH   1   5
BRANCH   3  11
ATOM     11  C   UNL     1      24.025   3.392  49.669  1.00  0.00     0.085 A 
ATOM     12  C   UNL     1      24.148   2.684  50.863  1.00  0.00     0.044 A 
ATOM     13  C   UNL     1      22.946   3.114  48.814  1.00  0.00     0.145 A 
ATOM     14  C   UNL     1      23.191   1.705  51.234  1.00  0.00     0.045 A 
ATOM     15  C   UNL     1      22.024   2.128  49.171  1.00  0.00     0.077 A 
ATOM     16  C   UNL     1      23.214   0.958  52.431  1.00  0.00     0.141 A 
ATOM     17  C   UNL     1      22.128   1.426  50.366  1.00  0.00     0.080 A 
ATOM     18  N   UNL     1      22.284   0.024  52.699  1.00  0.00    -0.219 NA
ATOM     19  N   UNL     1      21.198   0.507  50.634  1.00  0.00    -0.236 NA
ATOM     20  C   UNL     1      21.324  -0.156  51.789  1.00  0.00     0.224 A 
BRANCH  13  21
ATOM     21  O   UNL     1      22.905   3.861  47.662  1.00  0.00    -0.486 OA
BRANCH  21  22
ATOM     22  C   UNL     1      21.636   4.101  47.038  1.00  0.00     0.201 C 
ATOM     23  C   UNL     1      21.366   5.588  47.118  1.00  0.00     0.076 C 
ATOM     24  C   UNL     1      21.713   3.888  45.531  1.00  0.00     0.205 C 
ATOM     25  C   UNL     1      22.183   6.126  45.963  1.00  0.00     0.164 C 
ATOM     26  O   UNL     1      22.159   5.124  44.940  1.00  0.00    -0.377 OA
ENDBRANCH  21  22
ENDBRANCH  13  21
BRANCH  16  27
ATOM     27  N   UNL     1      24.253   1.197  53.372  1.00  0.00    -0.340 N 
ATOM     28  H   UNL     1      23.881   1.111  54.313  1.00  0.00     0.168 HD
BRANCH  27  29
ATOM     29  C   UNL     1      25.616   0.831  53.307  1.00  0.00     0.041 A 
ATOM     30  C   UNL     1      25.943  -0.502  53.006  1.00  0.00     0.029 A 
ATOM     31  C   UNL     1      26.657   1.709  53.637  1.00  0.00     0.049 A 
ATOM     32  C   UNL     1      27.272  -0.931  52.977  1.00  0.00     0.043 A 
ATOM     33  C   UNL     1      27.988   1.282  53.610  1.00  0.00     0.078 A 
ATOM     34  C   UNL     1      28.288  -0.034  53.275  1.00  0.00     0.141 A 
ATOM     35  Cl  UNL     1      29.244   2.393  54.003  1.00  0.00    -0.081 Cl
ATOM     36  F   UNL     1      29.558  -0.465  53.244  1.00  0.00    -0.205 F 
ENDBRANCH  27  29
ENDBRANCH  16  27
ENDBRANCH   3  11
TORSDOF 8
ENDMDL
MODEL 5
REMARK minimizedAffinity -8.2722168
REMARK minimizedRMSD -1
REMARK SMILES CN(C)C/C=C/C(=O)Nc1cc2c(Nc3ccc(F)c(Cl)c3)ncnc2cc1O[C@H]1CCOC1
REMARK SMILES IDX 7 1 8 2 9 3 6 5 5 6 4 7 2 8 1 9 3 10 10 11 11 12 28 13 12 14
REMARK SMILES IDX 27 15 13 16 26 17 23 18 25 19 24 20 29 21 30 22 31 23 34 24
REMARK SMILES IDX 32 25 33 26 14 27 15 29 16 30 22 31 17 32 20 33 18 34 21 35
REMARK SMILES IDX 19 36
REMARK H PARENT 9 4 14 28
ROOT
ATOM      1  C   UNL     1      25.633   2.960  50.513  1.00  0.00     0.248 C 
ATOM      2  O   UNL     1      24.572   3.066  49.910  1.00  0.00    -0.270 OA
ATOM      3  N   UNL     1      25.905   2.132  51.572  1.00  0.00    -0.319 N 
ATOM      4  H   UNL     1      26.870   2.043  51.874  1.00  0.00     0.170 HD
ENDROOT
BRANCH   1   5
ATOM      5  C   UNL     1      26.812   3.730  50.030  1.00  0.00     0.068 C 
ATOM      6  C   UNL     1      26.763   4.603  49.009  1.00  0.00    -0.006 C 
BRANCH   6   7
ATOM      7  C   UNL     1      27.869   5.419  48.393  1.00  0.00     0.111 C 
BRANCH   7   8
ATOM      8  N   UNL     1      27.807   6.871  48.328  1.00  0.00    -0.306 NA
ATOM      9  C   UNL     1      29.097   7.542  48.366  1.00  0.00     0.105 C 
ATOM     10  C   UNL     1      26.810   7.490  49.187  1.00  0.00     0.105 C 
ENDBRANCH   7   8
ENDBRANCH   6   7
ENDBRANCH   1   5
BRANCH   3  11
ATOM     11  C   UNL     1      25.010   1.304  52.283  1.00  0.00     0.085 A 
ATOM     12  C   UNL     1      23.642   1.553  52.379  1.00  0.00     0.044 A 
ATOM     13  C   UNL     1      25.550   0.184  52.934  1.00  0.00     0.145 A 
ATOM     14  C   UNL     1      22.790   0.683  53.106  1.00  0.00     0.045 A 
ATOM     15  C   UNL     1      24.711  -0.653  53.673  1.00  0.00     0.077 A 
ATOM     16  C   UNL     1      21.393   0.836  53.238  1.00  0.00     0.141 A 
ATOM     17  C   UNL     1      23.343  -0.423  53.764  1.00  0.00     0.080 A 
ATOM     18  N   UNL     1      20.655  -0.017  53.970  1.00  0.00    -0.219 NA
ATOM     19  N   UNL     1      22.611  -1.277  54.483  1.00  0.00    -0.236 NA
ATOM     20  C   UNL     1      21.299  -1.029  54.557  1.00  0.00     0.224 A 
BRANCH  13  21
ATOM     21  O   UNL     1      26.906   0.017  52.783  1.00  0.00    -0.486 OA
BRANCH  21  22
ATOM     22  C   UNL     1      27.640  -0.649  53.820  1.00  0.00     0.201 C 
ATOM     23  C   UNL     1      29.081  -0.742  53.365  1.00  0.00     0.076 C 
ATOM     24  C   UNL     1      27.770   0.232  55.057  1.00  0.00     0.205 C 
ATOM     25  C   UNL     1      29.612   0.637  53.693  1.00  0.00     0.164 C 
ATOM     26  O   UNL     1      28.926   1.073  54.872  1.00  0.00    -0.377 OA
ENDBRANCH  21  22
ENDBRANCH  13  21
BRANCH  16  27
ATOM     27  N   UNL     1      20.755   1.925  52.584  1.00  0.00    -0.340 N 
ATOM     28  H   UNL     1      20.822   2.754  53.165  1.00  0.00     0.168 HD
BRANCH  27  29
ATOM     29  C   UNL     1      20.727   2.245  51.208  1.00  0.00     0.041 A 
ATOM     30  C   UNL     1      20.661   1.198  50.272  1.00  0.00     0.029 A 
ATOM     31  C   UNL     1      20.876   3.553  50.727  1.00  0.00     0.049 A 
ATOM     32  C   UNL     1      20.681   1.454  48.899  1.00  0.00     0.043 A 
ATOM     33  C   UNL     1      20.897   3.812  49.353  1.00  0.00     0.078 A 
ATOM     34  C   UNL     1      20.795   2.761  48.447  1.00  0.00     0.141 A 
ATOM     35  Cl  UNL     1      21.062   5.433  48.797  1.00  0.00    -0.081 Cl
ATOM     36  F   UNL     1      20.815   2.987  47.125  1.00  0.00    -0.205 F 
ENDBRANCH  27  29
ENDBRANCH  16  27
ENDBRANCH   3  11
TORSDOF 8
ENDMDL
MODEL 6
REMARK minimizedAffinity -8.25353336
REMARK minimizedRMSD -1
REMARK SMILES CN(C)C/C=C/C(=O)Nc1cc2c(Nc3ccc(F)c(Cl)c3)ncnc2cc1O[C@H]1CCOC1
REMARK SMILES IDX 7 1 8 2 9 3 6 5 5 6 4 7 2 8 1 9 3 10 10 11 11 12 28 13 12 14
REMARK SMILES IDX 27 15 13 16 26 17 23 18 25 19 24 20 29 21 30 22 31 23 34 24
REMARK SMILES IDX 32 25 33 26 14 27 15 29 16 30 22 31 17 32 20 33 18 34 21 35
REMARK SMILES IDX 19 36
REMARK H PARENT 9 4 14 28
ROOT
ATOM      1  C   UNL     1      24.911   2.395  52.430  1.00  0.00     0.248 C 
ATOM      2  O   UNL     1      25.287   2.272  51.270  1.00  0.00    -0.270 OA
ATOM      3  N   UNL     1      23.946   3.246  52.904  1.00  0.00    -0.319 N 
ATOM      4  H   UNL     1      23.637   3.132  53.864  1.00  0.00     0.170 HD
ENDROOT
BRANCH   1   5
ATOM      5  C   UNL     1      25.473   1.483  53.465  1.00  0.00     0.068 C 
ATOM      6  C   UNL     1      26.772   1.144  53.531  1.00  0.00    -0.006 C 
BRANCH   6   7
ATOM      7  C   UNL     1      27.472   0.215  54.489  1.00  0.00     0.111 C 
BRANCH   7   8
ATOM      8  N   UNL     1      28.190  -0.964  54.029  1.00  0.00    -0.306 NA
ATOM      9  C   UNL     1      29.621  -0.777  53.849  1.00  0.00     0.105 C 
ATOM     10  C   UNL     1      27.560  -1.688  52.936  1.00  0.00     0.105 C 
ENDBRANCH   7   8
ENDBRANCH   6   7
ENDBRANCH   1   5
BRANCH   3  11
ATOM     11  C   UNL     1      23.249   4.251  52.199  1.00  0.00     0.085 A 
ATOM     12  C   UNL     1      23.835   5.442  51.776  1.00  0.00     0.044 A 
ATOM     13  C   UNL     1      21.889   4.024  51.935  1.00  0.00     0.145 A 
ATOM     14  C   UNL     1      23.084   6.415  51.068  1.00  0.00     0.045 A 
ATOM     15  C   UNL     1      21.148   4.998  51.263  1.00  0.00     0.077 A 
ATOM     16  C   UNL     1      23.593   7.635  50.576  1.00  0.00     0.141 A 
ATOM     17  C   UNL     1      21.725   6.183  50.823  1.00  0.00     0.080 A 
ATOM     18  N   UNL     1      22.809   8.522  49.937  1.00  0.00    -0.219 NA
ATOM     19  N   UNL     1      20.946   7.057  50.181  1.00  0.00    -0.236 NA
ATOM     20  C   UNL     1      21.527   8.191  49.773  1.00  0.00     0.224 A 
BRANCH  13  21
ATOM     21  O   UNL     1      21.397   2.822  52.387  1.00  0.00    -0.486 OA
BRANCH  21  22
ATOM     22  C   UNL     1      20.775   1.933  51.450  1.00  0.00     0.201 C 
ATOM     23  C   UNL     1      21.818   0.923  51.023  1.00  0.00     0.076 C 
ATOM     24  C   UNL     1      19.749   1.038  52.135  1.00  0.00     0.205 C 
ATOM     25  C   UNL     1      21.799  -0.063  52.170  1.00  0.00     0.164 C 
ATOM     26  O   UNL     1      20.452  -0.109  52.652  1.00  0.00    -0.377 OA
ENDBRANCH  21  22
ENDBRANCH  13  21
BRANCH  16  27
ATOM     27  N   UNL     1      24.970   7.935  50.768  1.00  0.00    -0.340 N 
ATOM     28  H   UNL     1      25.221   7.758  51.736  1.00  0.00     0.168 HD
BRANCH  27  29
ATOM     29  C   UNL     1      26.059   7.723  49.893  1.00  0.00     0.041 A 
ATOM     30  C   UNL     1      26.143   6.500  49.205  1.00  0.00     0.029 A 
ATOM     31  C   UNL     1      27.119   8.630  49.762  1.00  0.00     0.049 A 
ATOM     32  C   UNL     1      27.223   6.216  48.365  1.00  0.00     0.043 A 
ATOM     33  C   UNL     1      28.201   8.348  48.923  1.00  0.00     0.078 A 
ATOM     34  C   UNL     1      28.244   7.146  48.225  1.00  0.00     0.141 A 
ATOM     35  Cl  UNL     1      29.477   9.494  48.771  1.00  0.00    -0.081 Cl
ATOM     36  F   UNL     1      29.274   6.855  47.416  1.00  0.00    -0.205 F 
ENDBRANCH  27  29
ENDBRANCH  16  27
ENDBRANCH   3  11
TORSDOF 8
ENDMDL
MODEL 7
REMARK minimizedAffinity -8.24960709
REMARK minimizedRMSD -1
REMARK SMILES CN(C)C/C=C/C(=O)Nc1cc2c(Nc3ccc(F)c(Cl)c3)ncnc2cc1O[C@H]1CCOC1
REMARK SMILES IDX 7 1 8 2 9 3 6 5 5 6 4 7 2 8 1 9 3 10 10 11 11 12 28 13 12 14
REMARK SMILES IDX 27 15 13 16 26 17 23 18 25 19 24 20 29 21 30 22 31 23 34 24
REMARK SMILES IDX 32 25 33 26 14 27 15 29 16 30 22 31 17 32 20 33 18 34 21 35
REMARK SMILES IDX 19 36
REMARK H PARENT 9 4 14 28
ROOT
ATOM      1  C   UNL     1      25.032   2.155  52.325  1.00  0.00     0.248 C 
ATOM      2  O   UNL     1      24.592   3.005  53.090  1.00  0.00    -0.270 OA
ATOM      3  N   UNL     1      25.188   2.263  50.967  1.00  0.00    -0.319 N 
ATOM      4  H   UNL     1      25.704   1.533  50.486  1.00  0.00     0.170 HD
ENDROOT
BRANCH   1   5
ATOM      5  C   UNL     1      25.547   0.879  52.893  1.00  0.00     0.068 C 
ATOM      6  C   UNL     1      26.735   0.344  52.563  1.00  0.00    -0.006 C 
BRANCH   6   7
ATOM      7  C   UNL     1      27.366  -0.944  53.024  1.00  0.00     0.111 C 
BRANCH   7   8
ATOM      8  N   UNL     1      28.458  -0.963  53.986  1.00  0.00    -0.306 NA
ATOM      9  C   UNL     1      28.513   0.188  54.873  1.00  0.00     0.105 C 
ATOM     10  C   UNL     1      29.755  -1.338  53.446  1.00  0.00     0.105 C 
ENDBRANCH   7   8
ENDBRANCH   6   7
ENDBRANCH   1   5
BRANCH   3  11
ATOM     11  C   UNL     1      24.776   3.317  50.124  1.00  0.00     0.085 A 
ATOM     12  C   UNL     1      25.533   4.466  49.900  1.00  0.00     0.044 A 
ATOM     13  C   UNL     1      23.525   3.188  49.499  1.00  0.00     0.145 A 
ATOM     14  C   UNL     1      25.069   5.492  49.039  1.00  0.00     0.045 A 
ATOM     15  C   UNL     1      23.060   4.216  48.675  1.00  0.00     0.077 A 
ATOM     16  C   UNL     1      25.773   6.675  48.730  1.00  0.00     0.141 A 
ATOM     17  C   UNL     1      23.813   5.359  48.434  1.00  0.00     0.080 A 
ATOM     18  N   UNL     1      25.252   7.618  47.925  1.00  0.00    -0.219 NA
ATOM     19  N   UNL     1      23.297   6.288  47.626  1.00  0.00    -0.236 NA
ATOM     20  C   UNL     1      24.042   7.379  47.415  1.00  0.00     0.224 A 
BRANCH  13  21
ATOM     21  O   UNL     1      22.851   2.023  49.775  1.00  0.00    -0.486 OA
BRANCH  21  22
ATOM     22  C   UNL     1      21.490   2.102  50.222  1.00  0.00     0.201 C 
ATOM     23  C   UNL     1      21.013   0.687  50.470  1.00  0.00     0.076 C 
ATOM     24  C   UNL     1      21.402   2.701  51.621  1.00  0.00     0.205 C 
ATOM     25  C   UNL     1      21.584   0.391  51.840  1.00  0.00     0.164 C 
ATOM     26  O   UNL     1      21.578   1.626  52.564  1.00  0.00    -0.377 OA
ENDBRANCH  21  22
ENDBRANCH  13  21
BRANCH  16  27
ATOM     27  N   UNL     1      27.064   6.875  49.292  1.00  0.00    -0.340 N 
ATOM     28  H   UNL     1      27.293   6.092  49.896  1.00  0.00     0.168 HD
BRANCH  27  29
ATOM     29  C   UNL     1      28.215   7.441  48.700  1.00  0.00     0.041 A 
ATOM     30  C   UNL     1      28.891   6.711  47.708  1.00  0.00     0.029 A 
ATOM     31  C   UNL     1      28.780   8.648  49.135  1.00  0.00     0.049 A 
ATOM     32  C   UNL     1      30.063   7.200  47.123  1.00  0.00     0.043 A 
ATOM     33  C   UNL     1      29.953   9.138  48.553  1.00  0.00     0.078 A 
ATOM     34  C   UNL     1      30.584   8.415  47.547  1.00  0.00     0.141 A 
ATOM     35  Cl  UNL     1      30.609  10.634  49.098  1.00  0.00    -0.081 Cl
ATOM     36  F   UNL     1      31.711   8.866  46.976  1.00  0.00    -0.205 F 
ENDBRANCH  27  29
ENDBRANCH  16  27
ENDBRANCH   3  11
TORSDOF 8
ENDMDL
MODEL 8
REMARK minimizedAffinity -8.22624969
REMARK minimizedRMSD -1
REMARK SMILES CN(C)C/C=C/C(=O)Nc1cc2c(Nc3ccc(F)c(Cl)c3)ncnc2cc1O[C@H]1CCOC1
REMARK SMILES IDX 7 1 8 2 9 3 6 5 5 6 4 7 2 8 1 9 3 10 10 11 11 12 28 13 12 14
REMARK SMILES IDX 27 15 13 16 26 17 23 18 25 19 24 20 29 21 30 22 31 23 34 24
REMARK SMILES IDX 32 25 33 26 14 27 15 29 16 30 22 31 17 32 20 33 18 34 21 35
REMARK SMILES IDX 19 36
REMARK H PARENT 9 4 14 28
ROOT
ATOM      1  C   UNL     1      21.634  -0.216  52.925  1.00  0.00     0.248 C 
ATOM      2  O   UNL     1      22.543  -1.031  52.811  1.00  0.00    -0.270 OA
ATOM      3  N   UNL     1      21.545   1.015  52.325  1.00  0.00    -0.319 N 
ATOM      4  H   UNL     1      20.665   1.516  52.394  1.00  0.00     0.170 HD
ENDROOT
BRANCH   1   5
ATOM      5  C   UNL     1      20.433  -0.589  53.722  1.00  0.00     0.068 C 
ATOM      6  C   UNL     1      19.260  -0.950  53.175  1.00  0.00    -0.006 C 
BRANCH   6   7
ATOM      7  C   UNL     1      17.962  -1.315  53.847  1.00  0.00     0.111 C 
BRANCH   7   8
ATOM      8  N   UNL     1      16.808  -1.775  53.090  1.00  0.00    -0.306 NA
ATOM      9  C   UNL     1      16.705  -3.219  52.948  1.00  0.00     0.105 C 
ATOM     10  C   UNL     1      16.548  -1.054  51.854  1.00  0.00     0.105 C 
ENDBRANCH   7   8
ENDBRANCH   6   7
ENDBRANCH   1   5
BRANCH   3  11
ATOM     11  C   UNL     1      22.515   1.674  51.541  1.00  0.00     0.085 A 
ATOM     12  C   UNL     1      23.821   1.908  51.968  1.00  0.00     0.044 A 
ATOM     13  C   UNL     1      22.117   2.124  50.272  1.00  0.00     0.145 A 
ATOM     14  C   UNL     1      24.755   2.574  51.134  1.00  0.00     0.045 A 
ATOM     15  C   UNL     1      23.033   2.805  49.467  1.00  0.00     0.077 A 
ATOM     16  C   UNL     1      26.102   2.832  51.466  1.00  0.00     0.141 A 
ATOM     17  C   UNL     1      24.342   3.031  49.876  1.00  0.00     0.080 A 
ATOM     18  N   UNL     1      26.920   3.497  50.631  1.00  0.00    -0.219 NA
ATOM     19  N   UNL     1      25.154   3.683  49.041  1.00  0.00    -0.236 NA
ATOM     20  C   UNL     1      26.407   3.890  49.463  1.00  0.00     0.224 A 
BRANCH  13  21
ATOM     21  O   UNL     1      20.814   1.847  49.935  1.00  0.00    -0.486 OA
BRANCH  21  22
ATOM     22  C   UNL     1      19.882   2.933  49.830  1.00  0.00     0.201 C 
ATOM     23  C   UNL     1      18.492   2.351  49.977  1.00  0.00     0.076 C 
ATOM     24  C   UNL     1      19.958   3.846  51.048  1.00  0.00     0.205 C 
ATOM     25  C   UNL     1      18.360   2.209  51.477  1.00  0.00     0.164 C 
ATOM     26  O   UNL     1      19.094   3.292  52.060  1.00  0.00    -0.377 OA
ENDBRANCH  21  22
ENDBRANCH  13  21
BRANCH  16  27
ATOM     27  N   UNL     1      26.601   2.382  52.718  1.00  0.00    -0.340 N 
ATOM     28  H   UNL     1      25.897   2.531  53.435  1.00  0.00     0.168 HD
BRANCH  27  29
ATOM     29  C   UNL     1      27.417   1.264  53.003  1.00  0.00     0.041 A 
ATOM     30  C   UNL     1      28.711   1.484  53.506  1.00  0.00     0.029 A 
ATOM     31  C   UNL     1      27.038  -0.051  52.702  1.00  0.00     0.049 A 
ATOM     32  C   UNL     1      29.578   0.418  53.758  1.00  0.00     0.043 A 
ATOM     33  C   UNL     1      27.905  -1.119  52.953  1.00  0.00     0.078 A 
ATOM     34  C   UNL     1      29.168  -0.879  53.484  1.00  0.00     0.141 A 
ATOM     35  Cl  UNL     1      27.400  -2.725  52.589  1.00  0.00    -0.081 Cl
ATOM     36  F   UNL     1      30.015  -1.889  53.730  1.00  0.00    -0.205 F 
ENDBRANCH  27  29
ENDBRANCH  16  27
ENDBRANCH   3  11
TORSDOF 8
ENDMDL
MODEL 9
REMARK minimizedAffinity -8.14213085
REMARK minimizedRMSD -1
REMARK SMILES CN(C)C/C=C/C(=O)Nc1cc2c(Nc3ccc(F)c(Cl)c3)ncnc2cc1O[C@H]1CCOC1
REMARK SMILES IDX 7 1 8 2 9 3 6 5 5 6 4 7 2 8 1 9 3 10 10 11 11 12 28 13 12 14
REMARK SMILES IDX 27 15 13 16 26 17 23 18 25 19 24 20 29 21 30 22 31 23 34 24
REMARK SMILES IDX 32 25 33 26 14 27 15 29 16 30 22 31 17 32 20 33 18 34 21 35
REMARK SMILES IDX 19 36
REMARK H PARENT 9 4 14 28
ROOT
ATOM      1  C   UNL     1      27.637   5.440  48.712  1.00  0.00     0.248 C 
ATOM      2  O   UNL     1      27.619   4.214  48.711  1.00  0.00    -0.270 OA
ATOM      3  N   UNL     1      26.742   6.282  49.321  1.00  0.00    -0.319 N 
ATOM      4  H   UNL     1      26.968   7.271  49.362  1.00  0.00     0.170 HD
ENDROOT
BRANCH   1   5
ATOM      5  C   UNL     1      28.782   6.140  48.066  1.00  0.00     0.068 C 
ATOM      6  C   UNL     1      30.056   5.718  48.152  1.00  0.00    -0.006 C 
BRANCH   6   7
ATOM      7  C   UNL     1      31.309   6.335  47.588  1.00  0.00     0.111 C 
BRANCH   7   8
ATOM      8  N   UNL     1      32.346   6.887  48.446  1.00  0.00    -0.306 NA
ATOM      9  C   UNL     1      33.367   5.938  48.860  1.00  0.00     0.105 C 
ATOM     10  C   UNL     1      31.871   7.734  49.528  1.00  0.00     0.105 C 
ENDBRANCH   7   8
ENDBRANCH   6   7
ENDBRANCH   1   5
BRANCH   3  11
ATOM     11  C   UNL     1      25.542   5.946  49.982  1.00  0.00     0.085 A 
ATOM     12  C   UNL     1      25.220   4.651  50.385  1.00  0.00     0.044 A 
ATOM     13  C   UNL     1      24.629   6.986  50.223  1.00  0.00     0.145 A 
ATOM     14  C   UNL     1      23.998   4.374  51.050  1.00  0.00     0.045 A 
ATOM     15  C   UNL     1      23.415   6.701  50.851  1.00  0.00     0.077 A 
ATOM     16  C   UNL     1      23.597   3.105  51.518  1.00  0.00     0.141 A 
ATOM     17  C   UNL     1      23.090   5.417  51.270  1.00  0.00     0.080 A 
ATOM     18  N   UNL     1      22.407   2.916  52.115  1.00  0.00    -0.219 NA
ATOM     19  N   UNL     1      21.911   5.234  51.871  1.00  0.00    -0.236 NA
ATOM     20  C   UNL     1      21.623   3.987  52.260  1.00  0.00     0.224 A 
BRANCH  13  21
ATOM     21  O   UNL     1      25.030   8.228  49.794  1.00  0.00    -0.486 OA
BRANCH  21  22
ATOM     22  C   UNL     1      24.350   8.828  48.683  1.00  0.00     0.201 C 
ATOM     23  C   UNL     1      25.241   9.930  48.150  1.00  0.00     0.076 C 
ATOM     24  C   UNL     1      24.295   7.880  47.491  1.00  0.00     0.205 C 
ATOM     25  C   UNL     1      26.228   9.162  47.298  1.00  0.00     0.164 C 
ATOM     26  O   UNL     1      25.518   8.049  46.746  1.00  0.00    -0.377 OA
ENDBRANCH  21  22
ENDBRANCH  13  21
BRANCH  16  27
ATOM     27  N   UNL     1      24.474   1.999  51.347  1.00  0.00    -0.340 N 
ATOM     28  H   UNL     1      24.814   1.983  50.391  1.00  0.00     0.168 HD
BRANCH  27  29
ATOM     29  C   UNL     1      25.418   1.462  52.252  1.00  0.00     0.041 A 
ATOM     30  C   UNL     1      25.096   0.278  52.938  1.00  0.00     0.029 A 
ATOM     31  C   UNL     1      26.613   2.114  52.583  1.00  0.00     0.049 A 
ATOM     32  C   UNL     1      25.969  -0.271  53.880  1.00  0.00     0.043 A 
ATOM     33  C   UNL     1      27.488   1.568  53.526  1.00  0.00     0.078 A 
ATOM     34  C   UNL     1      27.164   0.376  54.166  1.00  0.00     0.141 A 
ATOM     35  Cl  UNL     1      28.958   2.387  53.894  1.00  0.00    -0.081 Cl
ATOM     36  F   UNL     1      27.989  -0.164  55.075  1.00  0.00    -0.205 F 
ENDBRANCH  27  29
ENDBRANCH  16  27
ENDBRANCH   3  11
TORSDOF 8
ENDMDL
MODEL 10
REMARK minimizedAffinity -8.0216217
REMARK minimizedRMSD -1
REMARK SMILES CN(C)C/C=C/C(=O)Nc1cc2c(Nc3ccc(F)c(Cl)c3)ncnc2cc1O[C@H]1CCOC1
REMARK SMILES IDX 7 1 8 2 9 3 6 5 5 6 4 7 2 8 1 9 3 10 10 11 11 12 28 13 12 14
REMARK SMILES IDX 27 15 13 16 26 17 23 18 25 19 24 20 29 21 30 22 31 23 34 24
REMARK SMILES IDX 32 25 33 26 14 27 15 29 16 30 22 31 17 32 20 33 18 34 21 35
REMARK SMILES IDX 19 36
REMARK H PARENT 9 4 14 28
ROOT
ATOM      1  C   UNL     1      30.983   5.379  48.414  1.00  0.00     0.248 C 
ATOM      2  O   UNL     1      31.145   5.528  49.619  1.00  0.00    -0.270 OA
ATOM      3  N   UNL     1      29.820   5.546  47.705  1.00  0.00    -0.319 N 
ATOM      4  H   UNL     1      29.872   5.533  46.692  1.00  0.00     0.170 HD
ENDROOT
BRANCH   1   5
ATOM      5  C   UNL     1      32.167   5.065  47.566  1.00  0.00     0.068 C 
ATOM      6  C   UNL     1      32.411   5.653  46.382  1.00  0.00    -0.006 C 
BRANCH   6   7
ATOM      7  C   UNL     1      33.535   5.415  45.408  1.00  0.00     0.111 C 
BRANCH   7   8
ATOM      8  N   UNL     1      33.327   5.462  43.969  1.00  0.00    -0.306 NA
ATOM      9  C   UNL     1      34.515   5.204  43.170  1.00  0.00     0.105 C 
ATOM     10  C   UNL     1      32.544   6.590  43.491  1.00  0.00     0.105 C 
ENDBRANCH   7   8
ENDBRANCH   6   7
ENDBRANCH   1   5
BRANCH   3  11
ATOM     11  C   UNL     1      28.527   5.810  48.205  1.00  0.00     0.085 A 
ATOM     12  C   UNL     1      27.715   4.841  48.791  1.00  0.00     0.044 A 
ATOM     13  C   UNL     1      28.046   7.123  48.080  1.00  0.00     0.145 A 
ATOM     14  C   UNL     1      26.424   5.166  49.278  1.00  0.00     0.045 A 
ATOM     15  C   UNL     1      26.763   7.430  48.535  1.00  0.00     0.077 A 
ATOM     16  C   UNL     1      25.542   4.263  49.909  1.00  0.00     0.141 A 
ATOM     17  C   UNL     1      25.950   6.476  49.134  1.00  0.00     0.080 A 
ATOM     18  N   UNL     1      24.318   4.642  50.320  1.00  0.00    -0.219 NA
ATOM     19  N   UNL     1      24.739   6.856  49.549  1.00  0.00    -0.236 NA
ATOM     20  C   UNL     1      23.977   5.916  50.119  1.00  0.00     0.224 A 
BRANCH  13  21
ATOM     21  O   UNL     1      28.915   8.011  47.492  1.00  0.00    -0.486 OA
BRANCH  21  22
ATOM     22  C   UNL     1      29.195   9.249  48.160  1.00  0.00     0.201 C 
ATOM     23  C   UNL     1      30.303   8.985  49.156  1.00  0.00     0.076 C 
ATOM     24  C   UNL     1      29.864  10.245  47.219  1.00  0.00     0.205 C 
ATOM     25  C   UNL     1      31.538   9.027  48.283  1.00  0.00     0.164 C 
ATOM     26  O   UNL     1      31.281   9.987  47.252  1.00  0.00    -0.377 OA
ENDBRANCH  21  22
ENDBRANCH  13  21
BRANCH  16  27
ATOM     27  N   UNL     1      25.959   2.919  50.109  1.00  0.00    -0.340 N 
ATOM     28  H   UNL     1      26.617   2.659  49.381  1.00  0.00     0.168 HD
BRANCH  27  29
ATOM     29  C   UNL     1      26.211   2.235  51.319  1.00  0.00     0.041 A 
ATOM     30  C   UNL     1      25.198   1.424  51.860  1.00  0.00     0.029 A 
ATOM     31  C   UNL     1      27.384   2.413  52.065  1.00  0.00     0.049 A 
ATOM     32  C   UNL     1      25.374   0.764  53.079  1.00  0.00     0.043 A 
ATOM     33  C   UNL     1      27.563   1.754  53.285  1.00  0.00     0.078 A 
ATOM     34  C   UNL     1      26.560   0.930  53.782  1.00  0.00     0.141 A 
ATOM     35  Cl  UNL     1      29.025   1.982  54.166  1.00  0.00    -0.081 Cl
ATOM     36  F   UNL     1      26.710   0.290  54.952  1.00  0.00    -0.205 F 
ENDBRANCH  27  29
ENDBRANCH  16  27
ENDBRANCH   3  11
TORSDOF 8
ENDMDL
MODEL 11
REMARK minimizedAffinity -7.97171926
REMARK minimizedRMSD -1
REMARK SMILES CN(C)C/C=C/C(=O)Nc1cc2c(Nc3ccc(F)c(Cl)c3)ncnc2cc1O[C@H]1CCOC1
REMARK SMILES IDX 7 1 8 2 9 3 6 5 5 6 4 7 2 8 1 9 3 10 10 11 11 12 28 13 12 14
REMARK SMILES IDX 27 15 13 16 26 17 23 18 25 19 24 20 29 21 30 22 31 23 34 24
REMARK SMILES IDX 32 25 33 26 14 27 15 29 16 30 22 31 17 32 20 33 18 34 21 35
REMARK SMILES IDX 19 36
REMARK H PARENT 9 4 14 28
ROOT
ATOM      1  C   UNL     1      30.434   5.497  48.219  1.00  0.00     0.248 C 
ATOM      2  O   UNL     1      30.803   5.486  49.388  1.00  0.00    -0.270 OA
ATOM      3  N   UNL     1      29.154   5.662  47.755  1.00  0.00    -0.319 N 
ATOM      4  H   UNL     1      29.021   5.798  46.758  1.00  0.00     0.170 HD
ENDROOT
BRANCH   1   5
ATOM      5  C   UNL     1      31.460   5.409  47.144  1.00  0.00     0.068 C 
ATOM      6  C   UNL     1      32.593   6.133  47.135  1.00  0.00    -0.006 C 
BRANCH   6   7
ATOM      7  C   UNL     1      33.694   6.176  46.108  1.00  0.00     0.111 C 
BRANCH   7   8
ATOM      8  N   UNL     1      33.417   6.100  44.681  1.00  0.00    -0.306 NA
ATOM      9  C   UNL     1      33.515   4.766  44.109  1.00  0.00     0.105 C 
ATOM     10  C   UNL     1      34.052   7.124  43.869  1.00  0.00     0.105 C 
ENDBRANCH   7   8
ENDBRANCH   6   7
ENDBRANCH   1   5
BRANCH   3  11
ATOM     11  C   UNL     1      27.960   5.741  48.503  1.00  0.00     0.085 A 
ATOM     12  C   UNL     1      27.358   4.640  49.110  1.00  0.00     0.044 A 
ATOM     13  C   UNL     1      27.355   7.003  48.615  1.00  0.00     0.145 A 
ATOM     14  C   UNL     1      26.158   4.781  49.852  1.00  0.00     0.045 A 
ATOM     15  C   UNL     1      26.158   7.129  49.323  1.00  0.00     0.077 A 
ATOM     16  C   UNL     1      25.489   3.735  50.523  1.00  0.00     0.141 A 
ATOM     17  C   UNL     1      25.556   6.042  49.945  1.00  0.00     0.080 A 
ATOM     18  N   UNL     1      24.337   3.942  51.185  1.00  0.00    -0.219 NA
ATOM     19  N   UNL     1      24.417   6.253  50.609  1.00  0.00    -0.236 NA
ATOM     20  C   UNL     1      23.857   5.188  51.194  1.00  0.00     0.224 A 
BRANCH  13  21
ATOM     21  O   UNL     1      28.020   8.029  47.988  1.00  0.00    -0.486 OA
BRANCH  21  22
ATOM     22  C   UNL     1      28.859   8.889  48.770  1.00  0.00     0.201 C 
ATOM     23  C   UNL     1      30.058   9.248  47.919  1.00  0.00     0.076 C 
ATOM     24  C   UNL     1      28.212  10.255  48.973  1.00  0.00     0.205 C 
ATOM     25  C   UNL     1      29.512  10.357  47.045  1.00  0.00     0.164 C 
ATOM     26  O   UNL     1      28.554  11.070  47.835  1.00  0.00    -0.377 OA
ENDBRANCH  21  22
ENDBRANCH  13  21
BRANCH  16  27
ATOM     27  N   UNL     1      26.049   2.428  50.491  1.00  0.00    -0.340 N 
ATOM     28  H   UNL     1      26.533   2.290  49.609  1.00  0.00     0.168 HD
BRANCH  27  29
ATOM     29  C   UNL     1      26.637   1.685  51.539  1.00  0.00     0.041 A 
ATOM     30  C   UNL     1      27.409   2.364  52.497  1.00  0.00     0.029 A 
ATOM     31  C   UNL     1      26.580   0.286  51.606  1.00  0.00     0.049 A 
ATOM     32  C   UNL     1      28.054   1.674  53.526  1.00  0.00     0.043 A 
ATOM     33  C   UNL     1      27.226  -0.407  52.634  1.00  0.00     0.078 A 
ATOM     34  C   UNL     1      27.955   0.291  53.591  1.00  0.00     0.141 A 
ATOM     35  Cl  UNL     1      27.120  -2.125  52.697  1.00  0.00    -0.081 Cl
ATOM     36  F   UNL     1      28.583  -0.355  54.585  1.00  0.00    -0.205 F 
ENDBRANCH  27  29
ENDBRANCH  16  27
ENDBRANCH   3  11
TORSDOF 8
ENDMDL
MODEL 12
REMARK minimizedAffinity -7.91697121
REMARK minimizedRMSD -1
REMARK SMILES CN(C)C/C=C/C(=O)Nc1cc2c(Nc3ccc(F)c(Cl)c3)ncnc2cc1O[C@H]1CCOC1
REMARK SMILES IDX 7 1 8 2 9 3 6 5 5 6 4 7 2 8 1 9 3 10 10 11 11 12 28 13 12 14
REMARK SMILES IDX 27 15 13 16 26 17 23 18 25 19 24 20 29 21 30 22 31 23 34 24
REMARK SMILES IDX 32 25 33 26 14 27 15 29 16 30 22 31 17 32 20 33 18 34 21 35
REMARK SMILES IDX 19 36
REMARK H PARENT 9 4 14 28
ROOT
ATOM      1  C   UNL     1      26.271   2.650  51.159  1.00  0.00     0.248 C 
ATOM      2  O   UNL     1      26.721   2.861  50.039  1.00  0.00    -0.270 OA
ATOM      3  N   UNL     1      25.136   3.189  51.712  1.00  0.00    -0.319 N 
ATOM      4  H   UNL     1      24.807   2.808  52.593  1.00  0.00     0.170 HD
ENDROOT
BRANCH   1   5
ATOM      5  C   UNL     1      26.944   1.643  52.025  1.00  0.00     0.068 C 
ATOM      6  C   UNL     1      26.567   0.355  52.099  1.00  0.00    -0.006 C 
BRANCH   6   7
ATOM      7  C   UNL     1      27.124  -0.759  52.946  1.00  0.00     0.111 C 
BRANCH   7   8
ATOM      8  N   UNL     1      27.469  -0.560  54.346  1.00  0.00    -0.306 NA
ATOM      9  C   UNL     1      26.451   0.113  55.138  1.00  0.00     0.105 C 
ATOM     10  C   UNL     1      28.813  -0.059  54.589  1.00  0.00     0.105 C 
ENDBRANCH   7   8
ENDBRANCH   6   7
ENDBRANCH   1   5
BRANCH   3  11
ATOM     11  C   UNL     1      24.296   4.188  51.175  1.00  0.00     0.085 A 
ATOM     12  C   UNL     1      24.688   5.514  51.003  1.00  0.00     0.044 A 
ATOM     13  C   UNL     1      22.994   3.805  50.815  1.00  0.00     0.145 A 
ATOM     14  C   UNL     1      23.799   6.474  50.455  1.00  0.00     0.045 A 
ATOM     15  C   UNL     1      22.114   4.761  50.303  1.00  0.00     0.077 A 
ATOM     16  C   UNL     1      24.112   7.829  50.219  1.00  0.00     0.141 A 
ATOM     17  C   UNL     1      22.498   6.083  50.114  1.00  0.00     0.080 A 
ATOM     18  N   UNL     1      23.204   8.687  49.721  1.00  0.00    -0.219 NA
ATOM     19  N   UNL     1      21.598   6.931  49.611  1.00  0.00    -0.236 NA
ATOM     20  C   UNL     1      21.993   8.197  49.443  1.00  0.00     0.224 A 
BRANCH  13  21
ATOM     21  O   UNL     1      22.697   2.479  51.017  1.00  0.00    -0.486 OA
BRANCH  21  22
ATOM     22  C   UNL     1      21.320   2.082  51.091  1.00  0.00     0.201 C 
ATOM     23  C   UNL     1      21.271   0.582  50.892  1.00  0.00     0.076 C 
ATOM     24  C   UNL     1      20.782   2.218  52.510  1.00  0.00     0.205 C 
ATOM     25  C   UNL     1      21.630   0.064  52.268  1.00  0.00     0.164 C 
ATOM     26  O   UNL     1      21.099   1.000  53.212  1.00  0.00    -0.377 OA
ENDBRANCH  21  22
ENDBRANCH  13  21
BRANCH  16  27
ATOM     27  N   UNL     1      25.420   8.297  50.522  1.00  0.00    -0.340 N 
ATOM     28  H   UNL     1      25.634   8.094  51.493  1.00  0.00     0.168 HD
BRANCH  27  29
ATOM     29  C   UNL     1      26.578   8.291  49.713  1.00  0.00     0.041 A 
ATOM     30  C   UNL     1      26.679   7.336  48.686  1.00  0.00     0.029 A 
ATOM     31  C   UNL     1      27.682   9.120  49.956  1.00  0.00     0.049 A 
ATOM     32  C   UNL     1      27.822   7.252  47.888  1.00  0.00     0.043 A 
ATOM     33  C   UNL     1      28.827   9.037  49.159  1.00  0.00     0.078 A 
ATOM     34  C   UNL     1      28.889   8.107  48.126  1.00  0.00     0.141 A 
ATOM     35  Cl  UNL     1      30.157  10.084  49.474  1.00  0.00    -0.081 Cl
ATOM     36  F   UNL     1      29.980   8.010  47.352  1.00  0.00    -0.205 F 
ENDBRANCH  27  29
ENDBRANCH  16  27
ENDBRANCH   3  11
TORSDOF 8
ENDMDL
MODEL 13
REMARK minimizedAffinity -7.8242836
REMARK minimizedRMSD -1
REMARK SMILES CN(C)C/C=C/C(=O)Nc1cc2c(Nc3ccc(F)c(Cl)c3)ncnc2cc1O[C@H]1CCOC1
REMARK SMILES IDX 7 1 8 2 9 3 6 5 5 6 4 7 2 8 1 9 3 10 10 11 11 12 28 13 12 14
REMARK SMILES IDX 27 15 13 16 26 17 23 18 25 19 24 20 29 21 30 22 31 23 34 24
REMARK SMILES IDX 32 25 33 26 14 27 15 29 16 30 22 31 17 32 20 33 18 34 21 35
REMARK SMILES IDX 19 36
REMARK H PARENT 9 4 14 28
ROOT
ATOM      1  C   UNL     1      24.798   3.251  50.892  1.00  0.00     0.248 C 
ATOM      2  O   UNL     1      24.063   4.198  51.145  1.00  0.00    -0.270 OA
ATOM      3  N   UNL     1      24.506   1.916  51.020  1.00  0.00    -0.319 N 
ATOM      4  H   UNL     1      25.160   1.245  50.632  1.00  0.00     0.170 HD
ENDROOT
BRANCH   1   5
ATOM      5  C   UNL     1      26.137   3.521  50.298  1.00  0.00     0.068 C 
ATOM      6  C   UNL     1      26.361   4.468  49.370  1.00  0.00    -0.006 C 
BRANCH   6   7
ATOM      7  C   UNL     1      27.639   4.828  48.660  1.00  0.00     0.111 C 
BRANCH   7   8
ATOM      8  N   UNL     1      27.900   6.180  48.187  1.00  0.00    -0.306 NA
ATOM      9  C   UNL     1      29.306   6.501  47.997  1.00  0.00     0.105 C 
ATOM     10  C   UNL     1      27.155   7.229  48.864  1.00  0.00     0.105 C 
ENDBRANCH   7   8
ENDBRANCH   6   7
ENDBRANCH   1   5
BRANCH   3  11
ATOM     11  C   UNL     1      23.350   1.328  51.576  1.00  0.00     0.085 A 
ATOM     12  C   UNL     1      22.126   1.259  50.913  1.00  0.00     0.044 A 
ATOM     13  C   UNL     1      23.458   0.803  52.874  1.00  0.00     0.145 A 
ATOM     14  C   UNL     1      20.998   0.652  51.521  1.00  0.00     0.045 A 
ATOM     15  C   UNL     1      22.336   0.232  53.479  1.00  0.00     0.077 A 
ATOM     16  C   UNL     1      19.729   0.511  50.922  1.00  0.00     0.141 A 
ATOM     17  C   UNL     1      21.114   0.145  52.822  1.00  0.00     0.080 A 
ATOM     18  N   UNL     1      18.697  -0.053  51.576  1.00  0.00    -0.219 NA
ATOM     19  N   UNL     1      20.095  -0.423  53.470  1.00  0.00    -0.236 NA
ATOM     20  C   UNL     1      18.930  -0.490  52.816  1.00  0.00     0.224 A 
BRANCH  13  21
ATOM     21  O   UNL     1      24.701   0.912  53.448  1.00  0.00    -0.486 OA
BRANCH  21  22
ATOM     22  C   UNL     1      25.365  -0.279  53.893  1.00  0.00     0.201 C 
ATOM     23  C   UNL     1      26.273  -0.737  52.772  1.00  0.00     0.076 C 
ATOM     24  C   UNL     1      26.374   0.028  54.993  1.00  0.00     0.205 C 
ATOM     25  C   UNL     1      27.479   0.159  52.949  1.00  0.00     0.164 C 
ATOM     26  O   UNL     1      27.612   0.397  54.355  1.00  0.00    -0.377 OA
ENDBRANCH  21  22
ENDBRANCH  13  21
BRANCH  16  27
ATOM     27  N   UNL     1      19.537   0.984  49.595  1.00  0.00    -0.340 N 
ATOM     28  H   UNL     1      18.853   0.399  49.124  1.00  0.00     0.168 HD
BRANCH  27  29
ATOM     29  C   UNL     1      19.513   2.314  49.118  1.00  0.00     0.041 A 
ATOM     30  C   UNL     1      18.685   3.248  49.764  1.00  0.00     0.029 A 
ATOM     31  C   UNL     1      20.191   2.720  47.961  1.00  0.00     0.049 A 
ATOM     32  C   UNL     1      18.584   4.563  49.306  1.00  0.00     0.043 A 
ATOM     33  C   UNL     1      20.091   4.036  47.499  1.00  0.00     0.078 A 
ATOM     34  C   UNL     1      19.293   4.951  48.177  1.00  0.00     0.141 A 
ATOM     35  Cl  UNL     1      20.954   4.506  46.085  1.00  0.00    -0.081 Cl
ATOM     36  F   UNL     1      19.182   6.218  47.749  1.00  0.00    -0.205 F 
ENDBRANCH  27  29
ENDBRANCH  16  27
ENDBRANCH   3  11
TORSDOF 8
ENDMDL
MODEL 14
REMARK minimizedAffinity -7.80908203
REMARK minimizedRMSD -1
REMARK SMILES CN(C)C/C=C/C(=O)Nc1cc2c(Nc3ccc(F)c(Cl)c3)ncnc2cc1O[C@H]1CCOC1
REMARK SMILES IDX 7 1 8 2 9 3 6 5 5 6 4 7 2 8 1 9 3 10 10 11 11 12 28 13 12 14
REMARK SMILES IDX 27 15 13 16 26 17 23 18 25 19 24 20 29 21 30 22 31 23 34 24
REMARK SMILES IDX 32 25 33 26 14 27 15 29 16 30 22 31 17 32 20 33 18 34 21 35
REMARK SMILES IDX 19 36
REMARK H PARENT 9 4 14 28
ROOT
ATOM      1  C   UNL     1      27.593   5.413  48.638  1.00  0.00     0.248 C 
ATOM      2  O   UNL     1      28.004   4.269  48.481  1.00  0.00    -0.270 OA
ATOM      3  N   UNL     1      26.442   5.800  49.277  1.00  0.00    -0.319 N 
ATOM      4  H   UNL     1      26.307   6.789  49.460  1.00  0.00     0.170 HD
ENDROOT
BRANCH   1   5
ATOM      5  C   UNL     1      28.439   6.548  48.178  1.00  0.00     0.068 C 
ATOM      6  C   UNL     1      29.783   6.517  48.166  1.00  0.00    -0.006 C 
BRANCH   6   7
ATOM      7  C   UNL     1      30.762   7.590  47.766  1.00  0.00     0.111 C 
BRANCH   7   8
ATOM      8  N   UNL     1      31.392   7.603  46.454  1.00  0.00    -0.306 NA
ATOM      9  C   UNL     1      30.531   8.039  45.366  1.00  0.00     0.105 C 
ATOM     10  C   UNL     1      32.179   6.424  46.130  1.00  0.00     0.105 C 
ENDBRANCH   7   8
ENDBRANCH   6   7
ENDBRANCH   1   5
BRANCH   3  11
ATOM     11  C   UNL     1      25.416   4.981  49.794  1.00  0.00     0.085 A 
ATOM     12  C   UNL     1      25.569   4.172  50.917  1.00  0.00     0.044 A 
ATOM     13  C   UNL     1      24.187   4.987  49.115  1.00  0.00     0.145 A 
ATOM     14  C   UNL     1      24.499   3.371  51.393  1.00  0.00     0.045 A 
ATOM     15  C   UNL     1      23.146   4.174  49.571  1.00  0.00     0.077 A 
ATOM     16  C   UNL     1      24.549   2.542  52.534  1.00  0.00     0.141 A 
ATOM     17  C   UNL     1      23.283   3.374  50.698  1.00  0.00     0.080 A 
ATOM     18  N   UNL     1      23.498   1.789  52.906  1.00  0.00    -0.219 NA
ATOM     19  N   UNL     1      22.236   2.634  51.071  1.00  0.00    -0.236 NA
ATOM     20  C   UNL     1      22.396   1.871  52.157  1.00  0.00     0.224 A 
BRANCH  13  21
ATOM     21  O   UNL     1      24.126   5.816  48.020  1.00  0.00    -0.486 OA
BRANCH  21  22
ATOM     22  C   UNL     1      23.123   6.841  47.984  1.00  0.00     0.201 C 
ATOM     23  C   UNL     1      23.750   8.107  48.526  1.00  0.00     0.076 C 
ATOM     24  C   UNL     1      22.803   7.250  46.551  1.00  0.00     0.205 C 
ATOM     25  C   UNL     1      24.512   8.628  47.326  1.00  0.00     0.164 C 
ATOM     26  O   UNL     1      23.754   8.263  46.168  1.00  0.00    -0.377 OA
ENDBRANCH  21  22
ENDBRANCH  13  21
BRANCH  16  27
ATOM     27  N   UNL     1      25.744   2.500  53.303  1.00  0.00    -0.340 N 
ATOM     28  H   UNL     1      25.568   2.898  54.220  1.00  0.00     0.168 HD
BRANCH  27  29
ATOM     29  C   UNL     1      26.743   1.502  53.343  1.00  0.00     0.041 A 
ATOM     30  C   UNL     1      28.058   1.877  53.666  1.00  0.00     0.029 A 
ATOM     31  C   UNL     1      26.507   0.172  52.966  1.00  0.00     0.049 A 
ATOM     32  C   UNL     1      29.096   0.941  53.672  1.00  0.00     0.043 A 
ATOM     33  C   UNL     1      27.544  -0.766  52.970  1.00  0.00     0.078 A 
ATOM     34  C   UNL     1      28.831  -0.378  53.328  1.00  0.00     0.141 A 
ATOM     35  Cl  UNL     1      27.214  -2.395  52.520  1.00  0.00    -0.081 Cl
ATOM     36  F   UNL     1      29.839  -1.262  53.337  1.00  0.00    -0.205 F 
ENDBRANCH  27  29
ENDBRANCH  16  27
ENDBRANCH   3  11
TORSDOF 8
ENDMDL
MODEL 15
REMARK minimizedAffinity -7.75967836
REMARK minimizedRMSD -1
REMARK SMILES CN(C)C/C=C/C(=O)Nc1cc2c(Nc3ccc(F)c(Cl)c3)ncnc2cc1O[C@H]1CCOC1
REMARK SMILES IDX 7 1 8 2 9 3 6 5 5 6 4 7 2 8 1 9 3 10 10 11 11 12 28 13 12 14
REMARK SMILES IDX 27 15 13 16 26 17 23 18 25 19 24 20 29 21 30 22 31 23 34 24
REMARK SMILES IDX 32 25 33 26 14 27 15 29 16 30 22 31 17 32 20 33 18 34 21 35
REMARK SMILES IDX 19 36
REMARK H PARENT 9 4 14 28
ROOT
ATOM      1  C   UNL     1      24.325   3.046  51.309  1.00  0.00     0.248 C 
ATOM      2  O   UNL     1      24.595   3.795  52.240  1.00  0.00    -0.270 OA
ATOM      3  N   UNL     1      24.514   3.284  49.971  1.00  0.00    -0.319 N 
ATOM      4  H   UNL     1      24.381   2.513  49.325  1.00  0.00     0.170 HD
ENDROOT
BRANCH   1   5
ATOM      5  C   UNL     1      23.810   1.682  51.612  1.00  0.00     0.068 C 
ATOM      6  C   UNL     1      23.555   1.243  52.857  1.00  0.00    -0.006 C 
BRANCH   6   7
ATOM      7  C   UNL     1      23.071  -0.107  53.316  1.00  0.00     0.111 C 
BRANCH   7   8
ATOM      8  N   UNL     1      21.892  -0.256  54.156  1.00  0.00    -0.306 NA
ATOM      9  C   UNL     1      21.562  -1.627  54.511  1.00  0.00     0.105 C 
ATOM     10  C   UNL     1      20.737   0.530  53.750  1.00  0.00     0.105 C 
ENDBRANCH   7   8
ENDBRANCH   6   7
ENDBRANCH   1   5
BRANCH   3  11
ATOM     11  C   UNL     1      24.949   4.475  49.352  1.00  0.00     0.085 A 
ATOM     12  C   UNL     1      26.288   4.845  49.249  1.00  0.00     0.044 A 
ATOM     13  C   UNL     1      23.960   5.326  48.831  1.00  0.00     0.145 A 
ATOM     14  C   UNL     1      26.666   6.055  48.612  1.00  0.00     0.045 A 
ATOM     15  C   UNL     1      24.337   6.529  48.231  1.00  0.00     0.077 A 
ATOM     16  C   UNL     1      27.993   6.501  48.437  1.00  0.00     0.141 A 
ATOM     17  C   UNL     1      25.670   6.902  48.110  1.00  0.00     0.080 A 
ATOM     18  N   UNL     1      28.271   7.677  47.846  1.00  0.00    -0.219 NA
ATOM     19  N   UNL     1      25.943   8.065  47.515  1.00  0.00    -0.236 NA
ATOM     20  C   UNL     1      27.234   8.401  47.416  1.00  0.00     0.224 A 
BRANCH  13  21
ATOM     21  O   UNL     1      22.669   4.879  48.974  1.00  0.00    -0.486 OA
BRANCH  21  22
ATOM     22  C   UNL     1      21.702   5.744  49.585  1.00  0.00     0.201 C 
ATOM     23  C   UNL     1      20.423   4.951  49.747  1.00  0.00     0.076 C 
ATOM     24  C   UNL     1      22.062   6.038  51.037  1.00  0.00     0.205 C 
ATOM     25  C   UNL     1      20.697   4.153  51.004  1.00  0.00     0.164 C 
ATOM     26  O   UNL     1      21.517   4.974  51.842  1.00  0.00    -0.377 OA
ENDBRANCH  21  22
ENDBRANCH  13  21
BRANCH  16  27
ATOM     27  N   UNL     1      29.061   5.687  48.903  1.00  0.00    -0.340 N 
ATOM     28  H   UNL     1      28.712   4.755  49.103  1.00  0.00     0.168 HD
BRANCH  27  29
ATOM     29  C   UNL     1      30.413   5.668  48.492  1.00  0.00     0.041 A 
ATOM     30  C   UNL     1      31.313   6.567  49.089  1.00  0.00     0.029 A 
ATOM     31  C   UNL     1      30.877   4.872  47.436  1.00  0.00     0.049 A 
ATOM     32  C   UNL     1      32.649   6.627  48.687  1.00  0.00     0.043 A 
ATOM     33  C   UNL     1      32.213   4.930  47.031  1.00  0.00     0.078 A 
ATOM     34  C   UNL     1      33.093   5.803  47.661  1.00  0.00     0.141 A 
ATOM     35  Cl  UNL     1      32.753   3.923  45.742  1.00  0.00    -0.081 Cl
ATOM     36  F   UNL     1      34.379   5.876  47.286  1.00  0.00    -0.205 F 
ENDBRANCH  27  29
ENDBRANCH  16  27
ENDBRANCH   3  11
TORSDOF 8
ENDMDL
MODEL 16
REMARK minimizedAffinity -7.72024059
REMARK minimizedRMSD -1
REMARK SMILES CN(C)C/C=C/C(=O)Nc1cc2c(Nc3ccc(F)c(Cl)c3)ncnc2cc1O[C@H]1CCOC1
REMARK SMILES IDX 7 1 8 2 9 3 6 5 5 6 4 7 2 8 1 9 3 10 10 11 11 12 28 13 12 14
REMARK SMILES IDX 27 15 13 16 26 17 23 18 25 19 24 20 29 21 30 22 31 23 34 24
REMARK SMILES IDX 32 25 33 26 14 27 15 29 16 30 22 31 17 32 20 33 18 34 21 35
REMARK SMILES IDX 19 36
REMARK H PARENT 9 4 14 28
ROOT
ATOM      1  C   UNL     1      24.257   3.100  51.492  1.00  0.00     0.248 C 
ATOM      2  O   UNL     1      23.973   3.977  52.299  1.00  0.00    -0.270 OA
ATOM      3  N   UNL     1      24.648   3.268  50.188  1.00  0.00    -0.319 N 
ATOM      4  H   UNL     1      24.994   2.458  49.684  1.00  0.00     0.170 HD
ENDROOT
BRANCH   1   5
ATOM      5  C   UNL     1      24.278   1.683  51.951  1.00  0.00     0.068 C 
ATOM      6  C   UNL     1      24.919   1.269  53.057  1.00  0.00    -0.006 C 
BRANCH   6   7
ATOM      7  C   UNL     1      25.056  -0.122  53.620  1.00  0.00     0.111 C 
BRANCH   7   8
ATOM      8  N   UNL     1      26.352  -0.689  53.959  1.00  0.00    -0.306 NA
ATOM      9  C   UNL     1      27.234   0.199  54.701  1.00  0.00     0.105 C 
ATOM     10  C   UNL     1      27.021  -1.397  52.880  1.00  0.00     0.105 C 
ENDBRANCH   7   8
ENDBRANCH   6   7
ENDBRANCH   1   5
BRANCH   3  11
ATOM     11  C   UNL     1      24.702   4.465  49.443  1.00  0.00     0.085 A 
ATOM     12  C   UNL     1      25.827   5.284  49.382  1.00  0.00     0.044 A 
ATOM     13  C   UNL     1      23.542   4.839  48.745  1.00  0.00     0.145 A 
ATOM     14  C   UNL     1      25.823   6.476  48.612  1.00  0.00     0.045 A 
ATOM     15  C   UNL     1      23.535   6.029  48.013  1.00  0.00     0.077 A 
ATOM     16  C   UNL     1      26.918   7.354  48.468  1.00  0.00     0.141 A 
ATOM     17  C   UNL     1      24.656   6.846  47.933  1.00  0.00     0.080 A 
ATOM     18  N   UNL     1      26.828   8.482  47.742  1.00  0.00    -0.219 NA
ATOM     19  N   UNL     1      24.566   7.961  47.205  1.00  0.00    -0.236 NA
ATOM     20  C   UNL     1      25.659   8.731  47.149  1.00  0.00     0.224 A 
BRANCH  13  21
ATOM     21  O   UNL     1      22.483   3.971  48.860  1.00  0.00    -0.486 OA
BRANCH  21  22
ATOM     22  C   UNL     1      22.048   3.253  47.697  1.00  0.00     0.201 C 
ATOM     23  C   UNL     1      22.162   1.776  48.008  1.00  0.00     0.076 C 
ATOM     24  C   UNL     1      20.546   3.403  47.486  1.00  0.00     0.205 C 
ATOM     25  C   UNL     1      20.900   1.516  48.802  1.00  0.00     0.164 C 
ATOM     26  O   UNL     1      19.894   2.387  48.273  1.00  0.00    -0.377 OA
ENDBRANCH  21  22
ENDBRANCH  13  21
BRANCH  16  27
ATOM     27  N   UNL     1      28.145   7.036  49.112  1.00  0.00    -0.340 N 
ATOM     28  H   UNL     1      27.960   6.453  49.922  1.00  0.00     0.168 HD
BRANCH  27  29
ATOM     29  C   UNL     1      29.407   6.759  48.540  1.00  0.00     0.041 A 
ATOM     30  C   UNL     1      29.669   5.455  48.084  1.00  0.00     0.029 A 
ATOM     31  C   UNL     1      30.451   7.694  48.506  1.00  0.00     0.049 A 
ATOM     32  C   UNL     1      30.915   5.112  47.555  1.00  0.00     0.043 A 
ATOM     33  C   UNL     1      31.699   7.352  47.977  1.00  0.00     0.078 A 
ATOM     34  C   UNL     1      31.923   6.065  47.500  1.00  0.00     0.141 A 
ATOM     35  Cl  UNL     1      32.953   8.532  47.934  1.00  0.00    -0.081 Cl
ATOM     36  F   UNL     1      33.114   5.717  46.991  1.00  0.00    -0.205 F 
ENDBRANCH  27  29
ENDBRANCH  16  27
ENDBRANCH   3  11
TORSDOF 8
ENDMDL
MODEL 17
REMARK minimizedAffinity -7.71684408
REMARK minimizedRMSD -1
REMARK SMILES CN(C)C/C=C/C(=O)Nc1cc2c(Nc3ccc(F)c(Cl)c3)ncnc2cc1O[C@H]1CCOC1
REMARK SMILES IDX 7 1 8 2 9 3 6 5 5 6 4 7 2 8 1 9 3 10 10 11 11 12 28 13 12 14
REMARK SMILES IDX 27 15 13 16 26 17 23 18 25 19 24 20 29 21 30 22 31 23 34 24
REMARK SMILES IDX 32 25 33 26 14 27 15 29 16 30 22 31 17 32 20 33 18 34 21 35
REMARK SMILES IDX 19 36
REMARK H PARENT 9 4 14 28
ROOT
ATOM      1  C   UNL     1      30.705   5.650  48.207  1.00  0.00     0.248 C 
ATOM      2  O   UNL     1      30.959   5.534  49.400  1.00  0.00    -0.270 OA
ATOM      3  N   UNL     1      29.570   6.180  47.648  1.00  0.00    -0.319 N 
ATOM      4  H   UNL     1      29.563   6.347  46.647  1.00  0.00     0.170 HD
ENDROOT
BRANCH   1   5
ATOM      5  C   UNL     1      31.744   5.265  47.212  1.00  0.00     0.068 C 
ATOM      6  C   UNL     1      32.597   6.139  46.651  1.00  0.00    -0.006 C 
BRANCH   6   7
ATOM      7  C   UNL     1      33.666   5.904  45.616  1.00  0.00     0.111 C 
BRANCH   7   8
ATOM      8  N   UNL     1      33.817   4.622  44.946  1.00  0.00    -0.306 NA
ATOM      9  C   UNL     1      34.964   3.838  45.376  1.00  0.00     0.105 C 
ATOM     10  C   UNL     1      33.646   4.651  43.502  1.00  0.00     0.105 C 
ENDBRANCH   7   8
ENDBRANCH   6   7
ENDBRANCH   1   5
BRANCH   3  11
ATOM     11  C   UNL     1      28.394   6.605  48.302  1.00  0.00     0.085 A 
ATOM     12  C   UNL     1      27.365   5.742  48.674  1.00  0.00     0.044 A 
ATOM     13  C   UNL     1      28.268   7.978  48.569  1.00  0.00     0.145 A 
ATOM     14  C   UNL     1      26.206   6.226  49.333  1.00  0.00     0.045 A 
ATOM     15  C   UNL     1      27.112   8.452  49.192  1.00  0.00     0.077 A 
ATOM     16  C   UNL     1      25.127   5.430  49.771  1.00  0.00     0.141 A 
ATOM     17  C   UNL     1      26.085   7.599  49.580  1.00  0.00     0.080 A 
ATOM     18  N   UNL     1      24.047   5.968  50.364  1.00  0.00    -0.219 NA
ATOM     19  N   UNL     1      25.018   8.135  50.177  1.00  0.00    -0.236 NA
ATOM     20  C   UNL     1      24.045   7.291  50.537  1.00  0.00     0.224 A 
BRANCH  13  21
ATOM     21  O   UNL     1      29.331   8.751  48.170  1.00  0.00    -0.486 OA
BRANCH  21  22
ATOM     22  C   UNL     1      30.167   9.346  49.172  1.00  0.00     0.201 C 
ATOM     23  C   UNL     1      31.604   9.093  48.770  1.00  0.00     0.076 C 
ATOM     24  C   UNL     1      30.101  10.868  49.115  1.00  0.00     0.205 C 
ATOM     25  C   UNL     1      31.846  10.175  47.739  1.00  0.00     0.164 C 
ATOM     26  O   UNL     1      31.069  11.308  48.143  1.00  0.00    -0.377 OA
ENDBRANCH  21  22
ENDBRANCH  13  21
BRANCH  16  27
ATOM     27  N   UNL     1      25.184   4.023  49.572  1.00  0.00    -0.340 N 
ATOM     28  H   UNL     1      26.119   3.690  49.786  1.00  0.00     0.168 HD
BRANCH  27  29
ATOM     29  C   UNL     1      24.201   3.045  49.840  1.00  0.00     0.041 A 
ATOM     30  C   UNL     1      23.173   2.846  48.901  1.00  0.00     0.029 A 
ATOM     31  C   UNL     1      24.136   2.340  51.050  1.00  0.00     0.049 A 
ATOM     32  C   UNL     1      22.147   1.927  49.136  1.00  0.00     0.043 A 
ATOM     33  C   UNL     1      23.110   1.421  51.288  1.00  0.00     0.078 A 
ATOM     34  C   UNL     1      22.124   1.216  50.328  1.00  0.00     0.141 A 
ATOM     35  Cl  UNL     1      23.073   0.559  52.778  1.00  0.00    -0.081 Cl
ATOM     36  F   UNL     1      21.130   0.341  50.538  1.00  0.00    -0.205 F 
ENDBRANCH  27  29
ENDBRANCH  16  27
ENDBRANCH   3  11
TORSDOF 8
ENDMDL
MODEL 18
REMARK minimizedAffinity -7.69426727
REMARK minimizedRMSD -1
REMARK SMILES CN(C)C/C=C/C(=O)Nc1cc2c(Nc3ccc(F)c(Cl)c3)ncnc2cc1O[C@H]1CCOC1
REMARK SMILES IDX 7 1 8 2 9 3 6 5 5 6 4 7 2 8 1 9 3 10 10 11 11 12 28 13 12 14
REMARK SMILES IDX 27 15 13 16 26 17 23 18 25 19 24 20 29 21 30 22 31 23 34 24
REMARK SMILES IDX 32 25 33 26 14 27 15 29 16 30 22 31 17 32 20 33 18 34 21 35
REMARK SMILES IDX 19 36
REMARK H PARENT 9 4 14 28
ROOT
ATOM      1  C   UNL     1      26.046   3.028  50.816  1.00  0.00     0.248 C 
ATOM      2  O   UNL     1      27.206   2.909  51.193  1.00  0.00    -0.270 OA
ATOM      3  N   UNL     1      25.562   3.916  49.889  1.00  0.00    -0.319 N 
ATOM      4  H   UNL     1      24.607   3.799  49.568  1.00  0.00     0.170 HD
ENDROOT
BRANCH   1   5
ATOM      5  C   UNL     1      25.025   2.071  51.325  1.00  0.00     0.068 C 
ATOM      6  C   UNL     1      23.723   2.128  50.997  1.00  0.00    -0.006 C 
BRANCH   6   7
ATOM      7  C   UNL     1      22.581   1.260  51.457  1.00  0.00     0.111 C 
BRANCH   7   8
ATOM      8  N   UNL     1      21.808   1.576  52.649  1.00  0.00    -0.306 NA
ATOM      9  C   UNL     1      21.413   0.424  53.445  1.00  0.00     0.105 C 
ATOM     10  C   UNL     1      20.737   2.540  52.457  1.00  0.00     0.105 C 
ENDBRANCH   7   8
ENDBRANCH   6   7
ENDBRANCH   1   5
BRANCH   3  11
ATOM     11  C   UNL     1      26.252   4.966  49.247  1.00  0.00     0.085 A 
ATOM     12  C   UNL     1      27.584   4.882  48.847  1.00  0.00     0.044 A 
ATOM     13  C   UNL     1      25.543   6.158  49.023  1.00  0.00     0.145 A 
ATOM     14  C   UNL     1      28.225   5.970  48.202  1.00  0.00     0.045 A 
ATOM     15  C   UNL     1      26.188   7.236  48.414  1.00  0.00     0.077 A 
ATOM     16  C   UNL     1      29.557   5.971  47.737  1.00  0.00     0.141 A 
ATOM     17  C   UNL     1      27.512   7.158  47.998  1.00  0.00     0.080 A 
ATOM     18  N   UNL     1      30.104   7.055  47.159  1.00  0.00    -0.219 NA
ATOM     19  N   UNL     1      28.049   8.233  47.416  1.00  0.00    -0.236 NA
ATOM     20  C   UNL     1      29.325   8.131  47.029  1.00  0.00     0.224 A 
BRANCH  13  21
ATOM     21  O   UNL     1      24.236   6.149  49.448  1.00  0.00    -0.486 OA
BRANCH  21  22
ATOM     22  C   UNL     1      23.927   6.687  50.742  1.00  0.00     0.201 C 
ATOM     23  C   UNL     1      23.039   7.894  50.529  1.00  0.00     0.076 C 
ATOM     24  C   UNL     1      22.997   5.760  51.517  1.00  0.00     0.205 C 
ATOM     25  C   UNL     1      21.680   7.261  50.322  1.00  0.00     0.164 C 
ATOM     26  O   UNL     1      21.646   6.083  51.135  1.00  0.00    -0.377 OA
ENDBRANCH  21  22
ENDBRANCH  13  21
BRANCH  16  27
ATOM     27  N   UNL     1      30.340   4.794  47.891  1.00  0.00    -0.340 N 
ATOM     28  H   UNL     1      29.767   3.979  47.697  1.00  0.00     0.168 HD
BRANCH  27  29
ATOM     29  C   UNL     1      31.696   4.577  47.559  1.00  0.00     0.041 A 
ATOM     30  C   UNL     1      31.999   3.737  46.473  1.00  0.00     0.029 A 
ATOM     31  C   UNL     1      32.758   5.069  48.331  1.00  0.00     0.049 A 
ATOM     32  C   UNL     1      33.322   3.448  46.130  1.00  0.00     0.043 A 
ATOM     33  C   UNL     1      34.083   4.779  47.990  1.00  0.00     0.078 A 
ATOM     34  C   UNL     1      34.358   3.975  46.890  1.00  0.00     0.141 A 
ATOM     35  Cl  UNL     1      35.363   5.417  48.950  1.00  0.00    -0.081 Cl
ATOM     36  F   UNL     1      35.621   3.684  46.547  1.00  0.00    -0.205 F 
ENDBRANCH  27  29
ENDBRANCH  16  27
ENDBRANCH   3  11
TORSDOF 8
ENDMDL
MODEL 19
REMARK minimizedAffinity -7.61720419
REMARK minimizedRMSD -1
REMARK SMILES CN(C)C/C=C/C(=O)Nc1cc2c(Nc3ccc(F)c(Cl)c3)ncnc2cc1O[C@H]1CCOC1
REMARK SMILES IDX 7 1 8 2 9 3 6 5 5 6 4 7 2 8 1 9 3 10 10 11 11 12 28 13 12 14
REMARK SMILES IDX 27 15 13 16 26 17 23 18 25 19 24 20 29 21 30 22 31 23 34 24
REMARK SMILES IDX 32 25 33 26 14 27 15 29 16 30 22 31 17 32 20 33 18 34 21 35
REMARK SMILES IDX 19 36
REMARK H PARENT 9 4 14 28
ROOT
ATOM      1  C   UNL     1      26.015   3.046  50.754  1.00  0.00     0.248 C 
ATOM      2  O   UNL     1      26.834   2.659  49.929  1.00  0.00    -0.270 OA
ATOM      3  N   UNL     1      25.266   4.194  50.705  1.00  0.00    -0.319 N 
ATOM      4  H   UNL     1      24.522   4.309  51.385  1.00  0.00     0.170 HD
ENDROOT
BRANCH   1   5
ATOM      5  C   UNL     1      25.699   2.169  51.916  1.00  0.00     0.068 C 
ATOM      6  C   UNL     1      26.567   1.909  52.909  1.00  0.00    -0.006 C 
BRANCH   6   7
ATOM      7  C   UNL     1      26.402   1.023  54.116  1.00  0.00     0.111 C 
BRANCH   7   8
ATOM      8  N   UNL     1      27.202  -0.178  54.302  1.00  0.00    -0.306 NA
ATOM      9  C   UNL     1      28.517   0.045  54.883  1.00  0.00     0.105 C 
ATOM     10  C   UNL     1      27.219  -1.094  53.172  1.00  0.00     0.105 C 
ENDBRANCH   7   8
ENDBRANCH   6   7
ENDBRANCH   1   5
BRANCH   3  11
ATOM     11  C   UNL     1      25.344   5.245  49.765  1.00  0.00     0.085 A 
ATOM     12  C   UNL     1      26.493   6.004  49.553  1.00  0.00     0.044 A 
ATOM     13  C   UNL     1      24.185   5.533  49.027  1.00  0.00     0.145 A 
ATOM     14  C   UNL     1      26.513   7.047  48.592  1.00  0.00     0.045 A 
ATOM     15  C   UNL     1      24.202   6.579  48.103  1.00  0.00     0.077 A 
ATOM     16  C   UNL     1      27.631   7.851  48.287  1.00  0.00     0.141 A 
ATOM     17  C   UNL     1      25.346   7.334  47.872  1.00  0.00     0.080 A 
ATOM     18  N   UNL     1      27.564   8.842  47.380  1.00  0.00    -0.219 NA
ATOM     19  N   UNL     1      25.278   8.311  46.965  1.00  0.00    -0.236 NA
ATOM     20  C   UNL     1      26.393   9.024  46.766  1.00  0.00     0.224 A 
BRANCH  13  21
ATOM     21  O   UNL     1      23.102   4.732  49.301  1.00  0.00    -0.486 OA
BRANCH  21  22
ATOM     22  C   UNL     1      22.510   3.981  48.232  1.00  0.00     0.201 C 
ATOM     23  C   UNL     1      22.925   2.537  48.409  1.00  0.00     0.076 C 
ATOM     24  C   UNL     1      20.998   3.883  48.397  1.00  0.00     0.205 C 
ATOM     25  C   UNL     1      21.956   2.050  49.463  1.00  0.00     0.164 C 
ATOM     26  O   UNL     1      20.727   2.753  49.249  1.00  0.00    -0.377 OA
ENDBRANCH  21  22
ENDBRANCH  13  21
BRANCH  16  27
ATOM     27  N   UNL     1      28.859   7.608  48.963  1.00  0.00    -0.340 N 
ATOM     28  H   UNL     1      28.666   7.244  49.891  1.00  0.00     0.168 HD
BRANCH  27  29
ATOM     29  C   UNL     1      30.078   7.117  48.446  1.00  0.00     0.041 A 
ATOM     30  C   UNL     1      31.139   8.018  48.249  1.00  0.00     0.029 A 
ATOM     31  C   UNL     1      30.246   5.794  48.014  1.00  0.00     0.049 A 
ATOM     32  C   UNL     1      32.351   7.597  47.695  1.00  0.00     0.043 A 
ATOM     33  C   UNL     1      31.457   5.371  47.458  1.00  0.00     0.078 A 
ATOM     34  C   UNL     1      32.504   6.273  47.307  1.00  0.00     0.141 A 
ATOM     35  Cl  UNL     1      31.634   3.733  46.956  1.00  0.00    -0.081 Cl
ATOM     36  F   UNL     1      33.673   5.889  46.774  1.00  0.00    -0.205 F 
ENDBRANCH  27  29
ENDBRANCH  16  27
ENDBRANCH   3  11
TORSDOF 8
ENDMDL
MODEL 20
REMARK minimizedAffinity -7.52244377
REMARK minimizedRMSD -1
REMARK SMILES CN(C)C/C=C/C(=O)Nc1cc2c(Nc3ccc(F)c(Cl)c3)ncnc2cc1O[C@H]1CCOC1
REMARK SMILES IDX 7 1 8 2 9 3 6 5 5 6 4 7 2 8 1 9 3 10 10 11 11 12 28 13 12 14
REMARK SMILES IDX 27 15 13 16 26 17 23 18 25 19 24 20 29 21 30 22 31 23 34 24
REMARK SMILES IDX 32 25 33 26 14 27 15 29 16 30 22 31 17 32 20 33 18 34 21 35
REMARK SMILES IDX 19 36
REMARK H PARENT 9 4 14 28
ROOT
ATOM      1  C   UNL     1      24.234   3.077  52.177  1.00  0.00     0.248 C 
ATOM      2  O   UNL     1      23.895   4.051  52.838  1.00  0.00    -0.270 OA
ATOM      3  N   UNL     1      24.625   3.063  50.862  1.00  0.00    -0.319 N 
ATOM      4  H   UNL     1      25.020   2.205  50.490  1.00  0.00     0.170 HD
ENDROOT
BRANCH   1   5
ATOM      5  C   UNL     1      24.331   1.752  52.850  1.00  0.00     0.068 C 
ATOM      6  C   UNL     1      23.451   0.754  52.657  1.00  0.00    -0.006 C 
BRANCH   6   7
ATOM      7  C   UNL     1      23.401  -0.613  53.287  1.00  0.00     0.111 C 
BRANCH   7   8
ATOM      8  N   UNL     1      22.689  -0.858  54.532  1.00  0.00    -0.306 NA
ATOM      9  C   UNL     1      23.508  -1.388  55.612  1.00  0.00     0.105 C 
ATOM     10  C   UNL     1      21.410  -1.535  54.393  1.00  0.00     0.105 C 
ENDBRANCH   7   8
ENDBRANCH   6   7
ENDBRANCH   1   5
BRANCH   3  11
ATOM     11  C   UNL     1      24.617   4.131  49.939  1.00  0.00     0.085 A 
ATOM     12  C   UNL     1      25.712   4.964  49.716  1.00  0.00     0.044 A 
ATOM     13  C   UNL     1      23.426   4.359  49.231  1.00  0.00     0.145 A 
ATOM     14  C   UNL     1      25.646   6.021  48.773  1.00  0.00     0.045 A 
ATOM     15  C   UNL     1      23.358   5.419  48.325  1.00  0.00     0.077 A 
ATOM     16  C   UNL     1      26.706   6.897  48.459  1.00  0.00     0.141 A 
ATOM     17  C   UNL     1      24.448   6.247  48.083  1.00  0.00     0.080 A 
ATOM     18  N   UNL     1      26.557   7.897  47.571  1.00  0.00    -0.219 NA
ATOM     19  N   UNL     1      24.300   7.233  47.195  1.00  0.00    -0.236 NA
ATOM     20  C   UNL     1      25.364   8.016  46.985  1.00  0.00     0.224 A 
BRANCH  13  21
ATOM     21  O   UNL     1      22.401   3.488  49.514  1.00  0.00    -0.486 OA
BRANCH  21  22
ATOM     22  C   UNL     1      22.120   2.428  48.589  1.00  0.00     0.201 C 
ATOM     23  C   UNL     1      21.671   1.230  49.397  1.00  0.00     0.076 C 
ATOM     24  C   UNL     1      20.869   2.727  47.771  1.00  0.00     0.205 C 
ATOM     25  C   UNL     1      20.218   1.553  49.672  1.00  0.00     0.164 C 
ATOM     26  O   UNL     1      19.734   2.272  48.533  1.00  0.00    -0.377 OA
ENDBRANCH  21  22
ENDBRANCH  13  21
BRANCH  16  27
ATOM     27  N   UNL     1      27.961   6.720  49.104  1.00  0.00    -0.340 N 
ATOM     28  H   UNL     1      27.841   6.119  49.913  1.00  0.00     0.168 HD
BRANCH  27  29
ATOM     29  C   UNL     1      29.246   6.587  48.532  1.00  0.00     0.041 A 
ATOM     30  C   UNL     1      29.995   7.749  48.279  1.00  0.00     0.029 A 
ATOM     31  C   UNL     1      29.765   5.358  48.101  1.00  0.00     0.049 A 
ATOM     32  C   UNL     1      31.250   7.681  47.670  1.00  0.00     0.043 A 
ATOM     33  C   UNL     1      31.020   5.288  47.490  1.00  0.00     0.078 A 
ATOM     34  C   UNL     1      31.758   6.448  47.283  1.00  0.00     0.141 A 
ATOM     35  Cl  UNL     1      31.636   3.759  46.991  1.00  0.00    -0.081 Cl
ATOM     36  F   UNL     1      32.964   6.402  46.697  1.00  0.00    -0.205 F 
ENDBRANCH  27  29
ENDBRANCH  16  27
ENDBRANCH   3  11
TORSDOF 8
ENDMDL
