MODEL 1
REMARK minimizedAffinity -9.30126381
REMARK minimizedRMSD -1
REMARK SMILES CNC(=O)c1cc(Oc2ccc(NC(=O)Nc3ccc(Cl)c(C(F)(F)F)c3)cc2)ccn1
REMARK SMILES IDX 9 1 10 2 11 3 12 4 28 5 29 6 8 7 7 8 5 9 6 10 32 11 31 12
REMARK SMILES IDX 30 13 3 14 2 15 4 16 1 17 13 19 14 20 15 21 16 22 17 25
REMARK SMILES IDX 18 26 27 27 19 28 22 29 20 30 21 31 23 32 24 33 25 34 26 35
REMARK H PARENT 2 18 13 23 16 24
ROOT
ATOM      1  C   UNL     1      27.669   6.094  48.386  1.00  0.00     0.127 A 
ATOM      2  C   UNL     1      26.731   6.981  48.908  1.00  0.00     0.049 A 
ATOM      3  C   UNL     1      25.734   6.503  49.761  1.00  0.00     0.030 A 
ATOM      4  C   UNL     1      25.660   5.140  50.087  1.00  0.00     0.043 A 
ATOM      5  C   UNL     1      26.592   4.261  49.527  1.00  0.00     0.030 A 
ATOM      6  C   UNL     1      27.591   4.735  48.671  1.00  0.00     0.049 A 
ENDROOT
BRANCH   1   7
ATOM      7  O   UNL     1      28.641   6.539  47.527  1.00  0.00    -0.457 OA
BRANCH   7   8
ATOM      8  C   UNL     1      29.869   6.874  48.057  1.00  0.00     0.131 A 
ATOM      9  C   UNL     1      32.111   6.174  48.446  1.00  0.00     0.131 A 
ATOM     10  C   UNL     1      30.858   5.906  47.916  1.00  0.00     0.081 A 
ATOM     11  N   UNL     1      32.432   7.330  49.097  1.00  0.00    -0.251 NA
ATOM     12  C   UNL     1      31.445   8.239  49.222  1.00  0.00     0.116 A 
ATOM     13  C   UNL     1      30.161   8.060  48.730  1.00  0.00     0.067 A 
BRANCH   9  14
ATOM     14  C   UNL     1      33.199   5.150  48.339  1.00  0.00     0.269 C 
ATOM     15  N   UNL     1      32.752   3.873  48.072  1.00  0.00    -0.354 N 
ATOM     16  O   UNL     1      34.379   5.454  48.465  1.00  0.00    -0.268 OA
ATOM     17  C   UNL     1      33.650   2.788  47.782  1.00  0.00     0.143 C 
ATOM     18  H   UNL     1      31.757   3.783  47.881  1.00  0.00     0.163 HD
ENDBRANCH   9  14
ENDBRANCH   7   8
ENDBRANCH   1   7
BRANCH   4  19
ATOM     19  N   UNL     1      24.628   4.746  50.967  1.00  0.00    -0.308 N 
ATOM     20  C   UNL     1      23.846   3.599  50.895  1.00  0.00     0.323 C 
ATOM     21  O   UNL     1      23.949   2.734  50.035  1.00  0.00    -0.248 OA
ATOM     22  N   UNL     1      22.932   3.568  51.941  1.00  0.00    -0.308 N 
ATOM     23  H   UNL     1      24.475   5.350  51.757  1.00  0.00     0.171 HD
ATOM     24  H   UNL     1      22.931   4.363  52.561  1.00  0.00     0.171 HD
BRANCH  22  25
ATOM     25  C   UNL     1      21.984   2.561  52.227  1.00  0.00     0.043 A 
ATOM     26  C   UNL     1      20.655   2.593  51.811  1.00  0.00     0.028 A 
ATOM     27  C   UNL     1      22.426   1.462  52.976  1.00  0.00     0.040 A 
ATOM     28  C   UNL     1      19.785   1.548  52.136  1.00  0.00     0.023 A 
ATOM     29  C   UNL     1      21.561   0.397  53.309  1.00  0.00     0.076 A 
ATOM     30  C   UNL     1      20.233   0.455  52.878  1.00  0.00     0.053 A 
ATOM     31  Cl  UNL     1      19.100  -0.799  53.216  1.00  0.00    -0.084 Cl
BRANCH  29  32
ATOM     32  C   UNL     1      22.086  -0.782  54.084  1.00  0.00     0.417 C 
ATOM     33  F   UNL     1      23.404  -0.647  54.421  1.00  0.00    -0.166 F 
ATOM     34  F   UNL     1      21.438  -0.994  55.262  1.00  0.00    -0.166 F 
ATOM     35  F   UNL     1      22.015  -1.947  53.381  1.00  0.00    -0.166 F 
ENDBRANCH  29  32
ENDBRANCH  22  25
ENDBRANCH   4  19
TORSDOF 6
ENDMDL
MODEL 2
REMARK minimizedAffinity -9.14146137
REMARK minimizedRMSD -1
REMARK SMILES CNC(=O)c1cc(Oc2ccc(NC(=O)Nc3ccc(Cl)c(C(F)(F)F)c3)cc2)ccn1
REMARK SMILES IDX 9 1 10 2 11 3 12 4 28 5 29 6 8 7 7 8 5 9 6 10 32 11 31 12
REMARK SMILES IDX 30 13 3 14 2 15 4 16 1 17 13 19 14 20 15 21 16 22 17 25
REMARK SMILES IDX 18 26 27 27 19 28 22 29 20 30 21 31 23 32 24 33 25 34 26 35
REMARK H PARENT 2 18 13 23 16 24
ROOT
ATOM      1  C   UNL     1      27.876   6.557  48.068  1.00  0.00     0.127 A 
ATOM      2  C   UNL     1      28.272   5.263  48.399  1.00  0.00     0.049 A 
ATOM      3  C   UNL     1      27.333   4.369  48.918  1.00  0.00     0.030 A 
ATOM      4  C   UNL     1      26.001   4.762  49.120  1.00  0.00     0.043 A 
ATOM      5  C   UNL     1      25.632   6.075  48.810  1.00  0.00     0.030 A 
ATOM      6  C   UNL     1      26.569   6.974  48.291  1.00  0.00     0.049 A 
ENDROOT
BRANCH   1   7
ATOM      7  O   UNL     1      28.788   7.458  47.580  1.00  0.00    -0.457 OA
BRANCH   7   8
ATOM      8  C   UNL     1      30.059   7.446  48.113  1.00  0.00     0.131 A 
ATOM      9  C   UNL     1      32.236   6.487  48.011  1.00  0.00     0.131 A 
ATOM     10  C   UNL     1      30.946   6.561  47.508  1.00  0.00     0.081 A 
ATOM     11  N   UNL     1      32.687   7.229  49.064  1.00  0.00    -0.251 NA
ATOM     12  C   UNL     1      31.796   8.067  49.630  1.00  0.00     0.116 A 
ATOM     13  C   UNL     1      30.486   8.207  49.200  1.00  0.00     0.067 A 
BRANCH   9  14
ATOM     14  C   UNL     1      33.218   5.530  47.406  1.00  0.00     0.269 C 
ATOM     15  N   UNL     1      33.647   4.540  48.264  1.00  0.00    -0.354 N 
ATOM     16  O   UNL     1      33.576   5.633  46.239  1.00  0.00    -0.268 OA
ATOM     17  C   UNL     1      34.467   3.443  47.825  1.00  0.00     0.143 C 
ATOM     18  H   UNL     1      33.186   4.507  49.169  1.00  0.00     0.163 HD
ENDBRANCH   9  14
ENDBRANCH   7   8
ENDBRANCH   1   7
BRANCH   4  19
ATOM     19  N   UNL     1      25.116   3.791  49.636  1.00  0.00    -0.308 N 
ATOM     20  C   UNL     1      25.270   3.034  50.792  1.00  0.00     0.323 C 
ATOM     21  O   UNL     1      26.222   3.110  51.557  1.00  0.00    -0.248 OA
ATOM     22  N   UNL     1      24.186   2.181  50.961  1.00  0.00    -0.308 N 
ATOM     23  H   UNL     1      24.258   3.669  49.125  1.00  0.00     0.171 HD
ATOM     24  H   UNL     1      23.485   2.196  50.237  1.00  0.00     0.171 HD
BRANCH  22  25
ATOM     25  C   UNL     1      23.961   1.276  52.021  1.00  0.00     0.043 A 
ATOM     26  C   UNL     1      24.961   0.533  52.645  1.00  0.00     0.028 A 
ATOM     27  C   UNL     1      22.641   1.128  52.466  1.00  0.00     0.040 A 
ATOM     28  C   UNL     1      24.648  -0.339  53.692  1.00  0.00     0.023 A 
ATOM     29  C   UNL     1      22.309   0.255  53.525  1.00  0.00     0.076 A 
ATOM     30  C   UNL     1      23.332  -0.477  54.133  1.00  0.00     0.053 A 
ATOM     31  Cl  UNL     1      23.038  -1.558  55.443  1.00  0.00    -0.084 Cl
BRANCH  29  32
ATOM     32  C   UNL     1      20.882   0.155  53.995  1.00  0.00     0.417 C 
ATOM     33  F   UNL     1      20.029   0.931  53.262  1.00  0.00    -0.166 F 
ATOM     34  F   UNL     1      20.370  -1.104  53.921  1.00  0.00    -0.166 F 
ATOM     35  F   UNL     1      20.723   0.567  55.284  1.00  0.00    -0.166 F 
ENDBRANCH  29  32
ENDBRANCH  22  25
ENDBRANCH   4  19
TORSDOF 6
ENDMDL
MODEL 3
REMARK minimizedAffinity -8.8647728
REMARK minimizedRMSD -1
REMARK SMILES CNC(=O)c1cc(Oc2ccc(NC(=O)Nc3ccc(Cl)c(C(F)(F)F)c3)cc2)ccn1
REMARK SMILES IDX 9 1 10 2 11 3 12 4 28 5 29 6 8 7 7 8 5 9 6 10 32 11 31 12
REMARK SMILES IDX 30 13 3 14 2 15 4 16 1 17 13 19 14 20 15 21 16 22 17 25
REMARK SMILES IDX 18 26 27 27 19 28 22 29 20 30 21 31 23 32 24 33 25 34 26 35
REMARK H PARENT 2 18 13 23 16 24
ROOT
ATOM      1  C   UNL     1      23.822   2.383  51.548  1.00  0.00     0.127 A 
ATOM      2  C   UNL     1      23.429   3.337  52.484  1.00  0.00     0.049 A 
ATOM      3  C   UNL     1      23.787   4.674  52.294  1.00  0.00     0.030 A 
ATOM      4  C   UNL     1      24.546   5.063  51.180  1.00  0.00     0.043 A 
ATOM      5  C   UNL     1      24.957   4.085  50.269  1.00  0.00     0.030 A 
ATOM      6  C   UNL     1      24.603   2.745  50.456  1.00  0.00     0.049 A 
ENDROOT
BRANCH   1   7
ATOM      7  O   UNL     1      23.502   1.062  51.728  1.00  0.00    -0.457 OA
BRANCH   7   8
ATOM      8  C   UNL     1      24.015   0.417  52.833  1.00  0.00     0.131 A 
ATOM      9  C   UNL     1      25.974  -0.127  54.072  1.00  0.00     0.131 A 
ATOM     10  C   UNL     1      25.394   0.518  52.991  1.00  0.00     0.081 A 
ATOM     11  N   UNL     1      25.276  -0.855  54.991  1.00  0.00    -0.251 NA
ATOM     12  C   UNL     1      23.944  -0.938  54.799  1.00  0.00     0.116 A 
ATOM     13  C   UNL     1      23.275  -0.332  53.747  1.00  0.00     0.067 A 
BRANCH   9  14
ATOM     14  C   UNL     1      27.459  -0.064  54.267  1.00  0.00     0.269 C 
ATOM     15  N   UNL     1      28.156  -1.074  53.637  1.00  0.00    -0.354 N 
ATOM     16  O   UNL     1      27.982   0.831  54.920  1.00  0.00    -0.268 OA
ATOM     17  C   UNL     1      29.593  -1.096  53.579  1.00  0.00     0.143 C 
ATOM     18  H   UNL     1      27.608  -1.684  53.038  1.00  0.00     0.163 HD
ENDBRANCH   9  14
ENDBRANCH   7   8
ENDBRANCH   1   7
BRANCH   4  19
ATOM     19  N   UNL     1      24.853   6.436  51.060  1.00  0.00    -0.308 N 
ATOM     20  C   UNL     1      25.712   7.036  50.148  1.00  0.00     0.323 C 
ATOM     21  O   UNL     1      26.341   6.441  49.283  1.00  0.00    -0.248 OA
ATOM     22  N   UNL     1      25.754   8.410  50.350  1.00  0.00    -0.308 N 
ATOM     23  H   UNL     1      24.355   7.049  51.685  1.00  0.00     0.171 HD
ATOM     24  H   UNL     1      25.211   8.768  51.121  1.00  0.00     0.171 HD
BRANCH  22  25
ATOM     25  C   UNL     1      26.487   9.367  49.615  1.00  0.00     0.043 A 
ATOM     26  C   UNL     1      25.911  10.359  48.825  1.00  0.00     0.028 A 
ATOM     27  C   UNL     1      27.884   9.304  49.699  1.00  0.00     0.040 A 
ATOM     28  C   UNL     1      26.715  11.270  48.133  1.00  0.00     0.023 A 
ATOM     29  C   UNL     1      28.710  10.219  49.010  1.00  0.00     0.076 A 
ATOM     30  C   UNL     1      28.106  11.204  48.226  1.00  0.00     0.053 A 
ATOM     31  Cl  UNL     1      29.021  12.378  47.357  1.00  0.00    -0.084 Cl
BRANCH  29  32
ATOM     32  C   UNL     1      30.206  10.137  49.158  1.00  0.00     0.417 C 
ATOM     33  F   UNL     1      30.846   9.967  47.962  1.00  0.00    -0.166 F 
ATOM     34  F   UNL     1      30.763  11.252  49.704  1.00  0.00    -0.166 F 
ATOM     35  F   UNL     1      30.602   9.084  49.927  1.00  0.00    -0.166 F 
ENDBRANCH  29  32
ENDBRANCH  22  25
ENDBRANCH   4  19
TORSDOF 6
ENDMDL
MODEL 4
REMARK minimizedAffinity -8.82285404
REMARK minimizedRMSD -1
REMARK SMILES CNC(=O)c1cc(Oc2ccc(NC(=O)Nc3ccc(Cl)c(C(F)(F)F)c3)cc2)ccn1
REMARK SMILES IDX 9 1 10 2 11 3 12 4 28 5 29 6 8 7 7 8 5 9 6 10 32 11 31 12
REMARK SMILES IDX 30 13 3 14 2 15 4 16 1 17 13 19 14 20 15 21 16 22 17 25
REMARK SMILES IDX 18 26 27 27 19 28 22 29 20 30 21 31 23 32 24 33 25 34 26 35
REMARK H PARENT 2 18 13 23 16 24
ROOT
ATOM      1  C   UNL     1      27.970   6.853  47.832  1.00  0.00     0.127 A 
ATOM      2  C   UNL     1      26.637   7.153  48.102  1.00  0.00     0.049 A 
ATOM      3  C   UNL     1      25.826   6.192  48.710  1.00  0.00     0.030 A 
ATOM      4  C   UNL     1      26.336   4.927  49.041  1.00  0.00     0.043 A 
ATOM      5  C   UNL     1      27.669   4.635  48.733  1.00  0.00     0.030 A 
ATOM      6  C   UNL     1      28.483   5.593  48.122  1.00  0.00     0.049 A 
ENDROOT
BRANCH   1   7
ATOM      7  O   UNL     1      28.776   7.773  47.213  1.00  0.00    -0.457 OA
BRANCH   7   8
ATOM      8  C   UNL     1      29.411   8.711  48.000  1.00  0.00     0.131 A 
ATOM      9  C   UNL     1      29.524  11.000  48.644  1.00  0.00     0.131 A 
ATOM     10  C   UNL     1      28.915  10.006  47.893  1.00  0.00     0.081 A 
ATOM     11  N   UNL     1      30.579  10.785  49.482  1.00  0.00    -0.251 NA
ATOM     12  C   UNL     1      31.037   9.519  49.551  1.00  0.00     0.116 A 
ATOM     13  C   UNL     1      30.498   8.461  48.837  1.00  0.00     0.067 A 
BRANCH   9  14
ATOM     14  C   UNL     1      29.038  12.414  48.541  1.00  0.00     0.269 C 
ATOM     15  N   UNL     1      29.555  13.114  47.471  1.00  0.00    -0.354 N 
ATOM     16  O   UNL     1      28.236  12.876  49.343  1.00  0.00    -0.268 OA
ATOM     17  C   UNL     1      29.093  14.429  47.116  1.00  0.00     0.143 C 
ATOM     18  H   UNL     1      30.123  12.576  46.821  1.00  0.00     0.163 HD
ENDBRANCH   9  14
ENDBRANCH   7   8
ENDBRANCH   1   7
BRANCH   4  19
ATOM     19  N   UNL     1      25.450   4.021  49.664  1.00  0.00    -0.308 N 
ATOM     20  C   UNL     1      25.727   3.151  50.712  1.00  0.00     0.323 C 
ATOM     21  O   UNL     1      26.812   3.048  51.269  1.00  0.00    -0.248 OA
ATOM     22  N   UNL     1      24.595   2.416  51.045  1.00  0.00    -0.308 N 
ATOM     23  H   UNL     1      24.500   4.044  49.333  1.00  0.00     0.171 HD
ATOM     24  H   UNL     1      23.774   2.576  50.483  1.00  0.00     0.171 HD
BRANCH  22  25
ATOM     25  C   UNL     1      24.466   1.451  52.067  1.00  0.00     0.043 A 
ATOM     26  C   UNL     1      25.540   0.831  52.702  1.00  0.00     0.028 A 
ATOM     27  C   UNL     1      23.166   1.109  52.462  1.00  0.00     0.040 A 
ATOM     28  C   UNL     1      25.319  -0.112  53.710  1.00  0.00     0.023 A 
ATOM     29  C   UNL     1      22.926   0.162  53.481  1.00  0.00     0.076 A 
ATOM     30  C   UNL     1      24.021  -0.445  54.101  1.00  0.00     0.053 A 
ATOM     31  Cl  UNL     1      23.840  -1.601  55.366  1.00  0.00    -0.084 Cl
BRANCH  29  32
ATOM     32  C   UNL     1      21.513  -0.150  53.899  1.00  0.00     0.417 C 
ATOM     33  F   UNL     1      20.583   0.498  53.136  1.00  0.00    -0.166 F 
ATOM     34  F   UNL     1      21.194  -1.470  53.805  1.00  0.00    -0.166 F 
ATOM     35  F   UNL     1      21.249   0.227  55.182  1.00  0.00    -0.166 F 
ENDBRANCH  29  32
ENDBRANCH  22  25
ENDBRANCH   4  19
TORSDOF 6
ENDMDL
MODEL 5
REMARK minimizedAffinity -8.78915882
REMARK minimizedRMSD -1
REMARK SMILES CNC(=O)c1cc(Oc2ccc(NC(=O)Nc3ccc(Cl)c(C(F)(F)F)c3)cc2)ccn1
REMARK SMILES IDX 9 1 10 2 11 3 12 4 28 5 29 6 8 7 7 8 5 9 6 10 32 11 31 12
REMARK SMILES IDX 30 13 3 14 2 15 4 16 1 17 13 19 14 20 15 21 16 22 17 25
REMARK SMILES IDX 18 26 27 27 19 28 22 29 20 30 21 31 23 32 24 33 25 34 26 35
REMARK H PARENT 2 18 13 23 16 24
ROOT
ATOM      1  C   UNL     1      27.959   6.524  48.126  1.00  0.00     0.127 A 
ATOM      2  C   UNL     1      26.851   7.245  48.564  1.00  0.00     0.049 A 
ATOM      3  C   UNL     1      25.861   6.599  49.308  1.00  0.00     0.030 A 
ATOM      4  C   UNL     1      25.964   5.232  49.606  1.00  0.00     0.043 A 
ATOM      5  C   UNL     1      27.069   4.519  49.129  1.00  0.00     0.030 A 
ATOM      6  C   UNL     1      28.061   5.161  48.384  1.00  0.00     0.049 A 
ENDROOT
BRANCH   1   7
ATOM      7  O   UNL     1      28.930   7.134  47.374  1.00  0.00    -0.457 OA
BRANCH   7   8
ATOM      8  C   UNL     1      30.186   7.268  47.926  1.00  0.00     0.131 A 
ATOM      9  C   UNL     1      32.438   6.495  47.924  1.00  0.00     0.131 A 
ATOM     10  C   UNL     1      31.157   6.423  47.398  1.00  0.00     0.081 A 
ATOM     11  N   UNL     1      32.804   7.344  48.928  1.00  0.00    -0.251 NA
ATOM     12  C   UNL     1      31.833   8.140  49.420  1.00  0.00     0.116 A 
ATOM     13  C   UNL     1      30.525   8.137  48.962  1.00  0.00     0.067 A 
BRANCH   9  14
ATOM     14  C   UNL     1      33.510   5.586  47.403  1.00  0.00     0.269 C 
ATOM     15  N   UNL     1      33.874   4.581  48.274  1.00  0.00    -0.354 N 
ATOM     16  O   UNL     1      33.989   5.736  46.286  1.00  0.00    -0.268 OA
ATOM     17  C   UNL     1      34.771   3.522  47.895  1.00  0.00     0.143 C 
ATOM     18  H   UNL     1      33.318   4.505  49.122  1.00  0.00     0.163 HD
ENDBRANCH   9  14
ENDBRANCH   7   8
ENDBRANCH   1   7
BRANCH   4  19
ATOM     19  N   UNL     1      24.924   4.662  50.373  1.00  0.00    -0.308 N 
ATOM     20  C   UNL     1      24.870   3.381  50.909  1.00  0.00     0.323 C 
ATOM     21  O   UNL     1      25.751   2.538  50.797  1.00  0.00    -0.248 OA
ATOM     22  N   UNL     1      23.678   3.192  51.598  1.00  0.00    -0.308 N 
ATOM     23  H   UNL     1      24.155   5.275  50.586  1.00  0.00     0.171 HD
ATOM     24  H   UNL     1      23.025   3.959  51.584  1.00  0.00     0.171 HD
BRANCH  22  25
ATOM     25  C   UNL     1      23.263   2.039  52.298  1.00  0.00     0.043 A 
ATOM     26  C   UNL     1      21.949   1.576  52.340  1.00  0.00     0.028 A 
ATOM     27  C   UNL     1      24.248   1.321  52.989  1.00  0.00     0.040 A 
ATOM     28  C   UNL     1      21.627   0.420  53.056  1.00  0.00     0.023 A 
ATOM     29  C   UNL     1      23.940   0.149  53.714  1.00  0.00     0.076 A 
ATOM     30  C   UNL     1      22.615  -0.292  53.738  1.00  0.00     0.053 A 
ATOM     31  Cl  UNL     1      22.134  -1.718  54.579  1.00  0.00    -0.084 Cl
BRANCH  29  32
ATOM     32  C   UNL     1      25.035  -0.611  54.413  1.00  0.00     0.417 C 
ATOM     33  F   UNL     1      25.999   0.208  54.929  1.00  0.00    -0.166 F 
ATOM     34  F   UNL     1      24.599  -1.355  55.466  1.00  0.00    -0.166 F 
ATOM     35  F   UNL     1      25.698  -1.462  53.580  1.00  0.00    -0.166 F 
ENDBRANCH  29  32
ENDBRANCH  22  25
ENDBRANCH   4  19
TORSDOF 6
ENDMDL
MODEL 6
REMARK minimizedAffinity -8.77613068
REMARK minimizedRMSD -1
REMARK SMILES CNC(=O)c1cc(Oc2ccc(NC(=O)Nc3ccc(Cl)c(C(F)(F)F)c3)cc2)ccn1
REMARK SMILES IDX 9 1 10 2 11 3 12 4 28 5 29 6 8 7 7 8 5 9 6 10 32 11 31 12
REMARK SMILES IDX 30 13 3 14 2 15 4 16 1 17 13 19 14 20 15 21 16 22 17 25
REMARK SMILES IDX 18 26 27 27 19 28 22 29 20 30 21 31 23 32 24 33 25 34 26 35
REMARK H PARENT 2 18 13 23 16 24
ROOT
ATOM      1  C   UNL     1      27.602   6.026  48.417  1.00  0.00     0.127 A 
ATOM      2  C   UNL     1      26.623   6.910  48.864  1.00  0.00     0.049 A 
ATOM      3  C   UNL     1      25.612   6.447  49.709  1.00  0.00     0.030 A 
ATOM      4  C   UNL     1      25.564   5.100  50.100  1.00  0.00     0.043 A 
ATOM      5  C   UNL     1      26.538   4.221  49.614  1.00  0.00     0.030 A 
ATOM      6  C   UNL     1      27.551   4.681  48.768  1.00  0.00     0.049 A 
ENDROOT
BRANCH   1   7
ATOM      7  O   UNL     1      28.589   6.455  47.568  1.00  0.00    -0.457 OA
BRANCH   7   8
ATOM      8  C   UNL     1      29.683   7.091  48.116  1.00  0.00     0.131 A 
ATOM      9  C   UNL     1      30.737   9.179  48.561  1.00  0.00     0.131 A 
ATOM     10  C   UNL     1      29.656   8.480  48.046  1.00  0.00     0.081 A 
ATOM     11  N   UNL     1      31.825   8.587  49.134  1.00  0.00    -0.251 NA
ATOM     12  C   UNL     1      31.818   7.239  49.176  1.00  0.00     0.116 A 
ATOM     13  C   UNL     1      30.787   6.455  48.683  1.00  0.00     0.067 A 
BRANCH   9  14
ATOM     14  C   UNL     1      30.762  10.675  48.484  1.00  0.00     0.269 C 
ATOM     15  N   UNL     1      29.638  11.288  48.998  1.00  0.00    -0.354 N 
ATOM     16  O   UNL     1      31.721  11.277  48.016  1.00  0.00    -0.268 OA
ATOM     17  C   UNL     1      29.543  12.714  49.153  1.00  0.00     0.143 C 
ATOM     18  H   UNL     1      28.969  10.675  49.456  1.00  0.00     0.163 HD
ENDBRANCH   9  14
ENDBRANCH   7   8
ENDBRANCH   1   7
BRANCH   4  19
ATOM     19  N   UNL     1      24.515   4.720  50.965  1.00  0.00    -0.308 N 
ATOM     20  C   UNL     1      23.777   3.543  50.936  1.00  0.00     0.323 C 
ATOM     21  O   UNL     1      23.942   2.633  50.134  1.00  0.00    -0.248 OA
ATOM     22  N   UNL     1      22.826   3.540  51.949  1.00  0.00    -0.308 N 
ATOM     23  H   UNL     1      24.312   5.363  51.712  1.00  0.00     0.171 HD
ATOM     24  H   UNL     1      22.775   4.369  52.520  1.00  0.00     0.171 HD
BRANCH  22  25
ATOM     25  C   UNL     1      21.905   2.517  52.262  1.00  0.00     0.043 A 
ATOM     26  C   UNL     1      20.556   2.541  51.914  1.00  0.00     0.028 A 
ATOM     27  C   UNL     1      22.395   1.409  52.967  1.00  0.00     0.040 A 
ATOM     28  C   UNL     1      19.715   1.480  52.261  1.00  0.00     0.023 A 
ATOM     29  C   UNL     1      21.559   0.327  53.322  1.00  0.00     0.076 A 
ATOM     30  C   UNL     1      20.211   0.378  52.959  1.00  0.00     0.053 A 
ATOM     31  Cl  UNL     1      19.109  -0.894  53.329  1.00  0.00    -0.084 Cl
BRANCH  29  32
ATOM     32  C   UNL     1      22.135  -0.859  54.047  1.00  0.00     0.417 C 
ATOM     33  F   UNL     1      21.999  -2.024  53.345  1.00  0.00    -0.166 F 
ATOM     34  F   UNL     1      23.468  -0.750  54.301  1.00  0.00    -0.166 F 
ATOM     35  F   UNL     1      21.525  -1.090  55.244  1.00  0.00    -0.166 F 
ENDBRANCH  29  32
ENDBRANCH  22  25
ENDBRANCH   4  19
TORSDOF 6
ENDMDL
MODEL 7
REMARK minimizedAffinity -8.68450642
REMARK minimizedRMSD -1
REMARK SMILES CNC(=O)c1cc(Oc2ccc(NC(=O)Nc3ccc(Cl)c(C(F)(F)F)c3)cc2)ccn1
REMARK SMILES IDX 9 1 10 2 11 3 12 4 28 5 29 6 8 7 7 8 5 9 6 10 32 11 31 12
REMARK SMILES IDX 30 13 3 14 2 15 4 16 1 17 13 19 14 20 15 21 16 22 17 25
REMARK SMILES IDX 18 26 27 27 19 28 22 29 20 30 21 31 23 32 24 33 25 34 26 35
REMARK H PARENT 2 18 13 23 16 24
ROOT
ATOM      1  C   UNL     1      23.561   2.847  50.794  1.00  0.00     0.127 A 
ATOM      2  C   UNL     1      24.807   3.093  50.223  1.00  0.00     0.049 A 
ATOM      3  C   UNL     1      25.360   4.373  50.307  1.00  0.00     0.030 A 
ATOM      4  C   UNL     1      24.671   5.414  50.947  1.00  0.00     0.043 A 
ATOM      5  C   UNL     1      23.406   5.153  51.486  1.00  0.00     0.030 A 
ATOM      6  C   UNL     1      22.848   3.874  51.403  1.00  0.00     0.049 A 
ENDROOT
BRANCH   1   7
ATOM      7  O   UNL     1      22.989   1.605  50.701  1.00  0.00    -0.457 OA
BRANCH   7   8
ATOM      8  C   UNL     1      22.907   0.843  51.848  1.00  0.00     0.131 A 
ATOM      9  C   UNL     1      24.102  -0.145  53.655  1.00  0.00     0.131 A 
ATOM     10  C   UNL     1      24.114   0.631  52.505  1.00  0.00     0.081 A 
ATOM     11  N   UNL     1      22.978  -0.712  54.179  1.00  0.00    -0.251 NA
ATOM     12  C   UNL     1      21.829  -0.492  53.509  1.00  0.00     0.116 A 
ATOM     13  C   UNL     1      21.742   0.264  52.351  1.00  0.00     0.067 A 
BRANCH   9  14
ATOM     14  C   UNL     1      25.384  -0.419  54.381  1.00  0.00     0.269 C 
ATOM     15  N   UNL     1      26.503   0.113  53.776  1.00  0.00    -0.354 N 
ATOM     16  O   UNL     1      25.402  -1.050  55.431  1.00  0.00    -0.268 OA
ATOM     17  C   UNL     1      27.799   0.089  54.400  1.00  0.00     0.143 C 
ATOM     18  H   UNL     1      26.331   0.708  52.970  1.00  0.00     0.163 HD
ENDBRANCH   9  14
ENDBRANCH   7   8
ENDBRANCH   1   7
BRANCH   4  19
ATOM     19  N   UNL     1      25.309   6.672  50.997  1.00  0.00    -0.308 N 
ATOM     20  C   UNL     1      25.817   7.407  49.933  1.00  0.00     0.323 C 
ATOM     21  O   UNL     1      25.774   7.061  48.759  1.00  0.00    -0.248 OA
ATOM     22  N   UNL     1      26.376   8.596  50.385  1.00  0.00    -0.308 N 
ATOM     23  H   UNL     1      25.361   7.098  51.907  1.00  0.00     0.171 HD
ATOM     24  H   UNL     1      26.374   8.742  51.383  1.00  0.00     0.171 HD
BRANCH  22  25
ATOM     25  C   UNL     1      26.969   9.617  49.613  1.00  0.00     0.043 A 
ATOM     26  C   UNL     1      26.260  10.503  48.804  1.00  0.00     0.028 A 
ATOM     27  C   UNL     1      28.364   9.739  49.676  1.00  0.00     0.040 A 
ATOM     28  C   UNL     1      26.929  11.489  48.075  1.00  0.00     0.023 A 
ATOM     29  C   UNL     1      29.055  10.733  48.949  1.00  0.00     0.076 A 
ATOM     30  C   UNL     1      28.318  11.607  48.147  1.00  0.00     0.053 A 
ATOM     31  Cl  UNL     1      29.061  12.865  47.232  1.00  0.00    -0.084 Cl
BRANCH  29  32
ATOM     32  C   UNL     1      30.550  10.850  49.075  1.00  0.00     0.417 C 
ATOM     33  F   UNL     1      31.086   9.905  49.903  1.00  0.00    -0.166 F 
ATOM     34  F   UNL     1      31.211  10.705  47.893  1.00  0.00    -0.166 F 
ATOM     35  F   UNL     1      30.941  12.047  49.597  1.00  0.00    -0.166 F 
ENDBRANCH  29  32
ENDBRANCH  22  25
ENDBRANCH   4  19
TORSDOF 6
ENDMDL
MODEL 8
REMARK minimizedAffinity -8.56304836
REMARK minimizedRMSD -1
REMARK SMILES CNC(=O)c1cc(Oc2ccc(NC(=O)Nc3ccc(Cl)c(C(F)(F)F)c3)cc2)ccn1
REMARK SMILES IDX 9 1 10 2 11 3 12 4 28 5 29 6 8 7 7 8 5 9 6 10 32 11 31 12
REMARK SMILES IDX 30 13 3 14 2 15 4 16 1 17 13 19 14 20 15 21 16 22 17 25
REMARK SMILES IDX 18 26 27 27 19 28 22 29 20 30 21 31 23 32 24 33 25 34 26 35
REMARK H PARENT 2 18 13 23 16 24
ROOT
ATOM      1  C   UNL     1      22.697   1.533  51.894  1.00  0.00     0.127 A 
ATOM      2  C   UNL     1      22.752   1.650  50.508  1.00  0.00     0.049 A 
ATOM      3  C   UNL     1      23.221   2.835  49.936  1.00  0.00     0.030 A 
ATOM      4  C   UNL     1      23.624   3.911  50.741  1.00  0.00     0.043 A 
ATOM      5  C   UNL     1      23.531   3.785  52.131  1.00  0.00     0.030 A 
ATOM      6  C   UNL     1      23.062   2.601  52.708  1.00  0.00     0.049 A 
ENDROOT
BRANCH   1   7
ATOM      7  O   UNL     1      22.218   0.388  52.476  1.00  0.00    -0.457 OA
BRANCH   7   8
ATOM      8  C   UNL     1      22.966  -0.192  53.478  1.00  0.00     0.131 A 
ATOM      9  C   UNL     1      25.146  -0.800  54.217  1.00  0.00     0.131 A 
ATOM     10  C   UNL     1      24.339  -0.212  53.255  1.00  0.00     0.081 A 
ATOM     11  N   UNL     1      24.675  -1.360  55.369  1.00  0.00    -0.251 NA
ATOM     12  C   UNL     1      23.339  -1.330  55.544  1.00  0.00     0.116 A 
ATOM     13  C   UNL     1      22.452  -0.769  54.639  1.00  0.00     0.067 A 
BRANCH   9  14
ATOM     14  C   UNL     1      26.628  -0.865  54.007  1.00  0.00     0.269 C 
ATOM     15  N   UNL     1      27.345   0.061  54.735  1.00  0.00    -0.354 N 
ATOM     16  O   UNL     1      27.133  -1.694  53.260  1.00  0.00    -0.268 OA
ATOM     17  C   UNL     1      28.782   0.054  54.785  1.00  0.00     0.143 C 
ATOM     18  H   UNL     1      26.810   0.614  55.399  1.00  0.00     0.163 HD
ENDBRANCH   9  14
ENDBRANCH   7   8
ENDBRANCH   1   7
BRANCH   4  19
ATOM     19  N   UNL     1      24.096   5.066  50.080  1.00  0.00    -0.308 N 
ATOM     20  C   UNL     1      25.276   5.208  49.360  1.00  0.00     0.323 C 
ATOM     21  O   UNL     1      26.099   4.319  49.183  1.00  0.00    -0.248 OA
ATOM     22  N   UNL     1      25.390   6.500  48.863  1.00  0.00    -0.308 N 
ATOM     23  H   UNL     1      23.481   5.862  50.103  1.00  0.00     0.171 HD
ATOM     24  H   UNL     1      24.655   7.144  49.112  1.00  0.00     0.171 HD
BRANCH  22  25
ATOM     25  C   UNL     1      26.429   7.027  48.065  1.00  0.00     0.043 A 
ATOM     26  C   UNL     1      26.236   7.930  47.022  1.00  0.00     0.028 A 
ATOM     27  C   UNL     1      27.734   6.609  48.357  1.00  0.00     0.040 A 
ATOM     28  C   UNL     1      27.325   8.405  46.285  1.00  0.00     0.023 A 
ATOM     29  C   UNL     1      28.845   7.083  47.626  1.00  0.00     0.076 A 
ATOM     30  C   UNL     1      28.623   7.988  46.585  1.00  0.00     0.053 A 
ATOM     31  Cl  UNL     1      29.909   8.639  45.640  1.00  0.00    -0.084 Cl
BRANCH  29  32
ATOM     32  C   UNL     1      30.233   6.635  47.996  1.00  0.00     0.417 C 
ATOM     33  F   UNL     1      30.237   5.681  48.975  1.00  0.00    -0.166 F 
ATOM     34  F   UNL     1      30.925   6.085  46.961  1.00  0.00    -0.166 F 
ATOM     35  F   UNL     1      31.001   7.650  48.484  1.00  0.00    -0.166 F 
ENDBRANCH  29  32
ENDBRANCH  22  25
ENDBRANCH   4  19
TORSDOF 6
ENDMDL
MODEL 9
REMARK minimizedAffinity -8.56194973
REMARK minimizedRMSD -1
REMARK SMILES CNC(=O)c1cc(Oc2ccc(NC(=O)Nc3ccc(Cl)c(C(F)(F)F)c3)cc2)ccn1
REMARK SMILES IDX 9 1 10 2 11 3 12 4 28 5 29 6 8 7 7 8 5 9 6 10 32 11 31 12
REMARK SMILES IDX 30 13 3 14 2 15 4 16 1 17 13 19 14 20 15 21 16 22 17 25
REMARK SMILES IDX 18 26 27 27 19 28 22 29 20 30 21 31 23 32 24 33 25 34 26 35
REMARK H PARENT 2 18 13 23 16 24
ROOT
ATOM      1  C   UNL     1      22.873   2.596  51.408  1.00  0.00     0.127 A 
ATOM      2  C   UNL     1      23.585   2.496  50.215  1.00  0.00     0.049 A 
ATOM      3  C   UNL     1      24.494   3.500  49.871  1.00  0.00     0.030 A 
ATOM      4  C   UNL     1      24.687   4.611  50.706  1.00  0.00     0.043 A 
ATOM      5  C   UNL     1      23.938   4.708  51.884  1.00  0.00     0.030 A 
ATOM      6  C   UNL     1      23.027   3.706  52.231  1.00  0.00     0.049 A 
ENDROOT
BRANCH   1   7
ATOM      7  O   UNL     1      21.959   1.634  51.752  1.00  0.00    -0.457 OA
BRANCH   7   8
ATOM      8  C   UNL     1      22.280   0.774  52.780  1.00  0.00     0.131 A 
ATOM      9  C   UNL     1      24.027  -0.350  53.944  1.00  0.00     0.131 A 
ATOM     10  C   UNL     1      23.639   0.523  52.939  1.00  0.00     0.081 A 
ATOM     11  N   UNL     1      23.156  -0.978  54.786  1.00  0.00    -0.251 NA
ATOM     12  C   UNL     1      21.847  -0.717  54.595  1.00  0.00     0.116 A 
ATOM     13  C   UNL     1      21.364   0.137  53.616  1.00  0.00     0.067 A 
BRANCH   9  14
ATOM     14  C   UNL     1      25.479  -0.668  54.135  1.00  0.00     0.269 C 
ATOM     15  N   UNL     1      26.159  -0.934  52.965  1.00  0.00    -0.354 N 
ATOM     16  O   UNL     1      25.994  -0.667  55.246  1.00  0.00    -0.268 OA
ATOM     17  C   UNL     1      27.586  -1.108  52.928  1.00  0.00     0.143 C 
ATOM     18  H   UNL     1      25.636  -0.791  52.106  1.00  0.00     0.163 HD
ENDBRANCH   9  14
ENDBRANCH   7   8
ENDBRANCH   1   7
BRANCH   4  19
ATOM     19  N   UNL     1      25.633   5.572  50.288  1.00  0.00    -0.308 N 
ATOM     20  C   UNL     1      26.592   5.439  49.291  1.00  0.00     0.323 C 
ATOM     21  O   UNL     1      26.753   4.439  48.604  1.00  0.00    -0.248 OA
ATOM     22  N   UNL     1      27.341   6.603  49.178  1.00  0.00    -0.308 N 
ATOM     23  H   UNL     1      25.572   6.468  50.741  1.00  0.00     0.171 HD
ATOM     24  H   UNL     1      27.125   7.341  49.830  1.00  0.00     0.171 HD
BRANCH  22  25
ATOM     25  C   UNL     1      28.387   6.869  48.269  1.00  0.00     0.043 A 
ATOM     26  C   UNL     1      28.274   7.714  47.166  1.00  0.00     0.028 A 
ATOM     27  C   UNL     1      29.616   6.238  48.506  1.00  0.00     0.040 A 
ATOM     28  C   UNL     1      29.366   7.923  46.319  1.00  0.00     0.023 A 
ATOM     29  C   UNL     1      30.729   6.442  47.662  1.00  0.00     0.076 A 
ATOM     30  C   UNL     1      30.588   7.295  46.564  1.00  0.00     0.053 A 
ATOM     31  Cl  UNL     1      31.887   7.625  45.481  1.00  0.00    -0.084 Cl
BRANCH  29  32
ATOM     32  C   UNL     1      32.040   5.772  47.974  1.00  0.00     0.417 C 
ATOM     33  F   UNL     1      31.980   4.990  49.094  1.00  0.00    -0.166 F 
ATOM     34  F   UNL     1      32.480   4.945  46.986  1.00  0.00    -0.166 F 
ATOM     35  F   UNL     1      33.043   6.664  48.214  1.00  0.00    -0.166 F 
ENDBRANCH  29  32
ENDBRANCH  22  25
ENDBRANCH   4  19
TORSDOF 6
ENDMDL
MODEL 10
REMARK minimizedAffinity -8.54923534
REMARK minimizedRMSD -1
REMARK SMILES CNC(=O)c1cc(Oc2ccc(NC(=O)Nc3ccc(Cl)c(C(F)(F)F)c3)cc2)ccn1
REMARK SMILES IDX 9 1 10 2 11 3 12 4 28 5 29 6 8 7 7 8 5 9 6 10 32 11 31 12
REMARK SMILES IDX 30 13 3 14 2 15 4 16 1 17 13 19 14 20 15 21 16 22 17 25
REMARK SMILES IDX 18 26 27 27 19 28 22 29 20 30 21 31 23 32 24 33 25 34 26 35
REMARK H PARENT 2 18 13 23 16 24
ROOT
ATOM      1  C   UNL     1      22.822   1.782  51.977  1.00  0.00     0.127 A 
ATOM      2  C   UNL     1      23.265   2.861  52.737  1.00  0.00     0.049 A 
ATOM      3  C   UNL     1      23.891   3.937  52.104  1.00  0.00     0.030 A 
ATOM      4  C   UNL     1      24.088   3.937  50.715  1.00  0.00     0.043 A 
ATOM      5  C   UNL     1      23.663   2.830  49.973  1.00  0.00     0.030 A 
ATOM      6  C   UNL     1      23.038   1.750  50.603  1.00  0.00     0.049 A 
ENDROOT
BRANCH   1   7
ATOM      7  O   UNL     1      22.227   0.704  52.581  1.00  0.00    -0.457 OA
BRANCH   7   8
ATOM      8  C   UNL     1      22.950   0.015  53.532  1.00  0.00     0.131 A 
ATOM      9  C   UNL     1      25.114  -0.630  54.286  1.00  0.00     0.131 A 
ATOM     10  C   UNL     1      24.331   0.061  53.373  1.00  0.00     0.081 A 
ATOM     11  N   UNL     1      24.612  -1.351  55.329  1.00  0.00    -0.251 NA
ATOM     12  C   UNL     1      23.269  -1.380  55.444  1.00  0.00     0.116 A 
ATOM     13  C   UNL     1      22.405  -0.725  54.581  1.00  0.00     0.067 A 
BRANCH   9  14
ATOM     14  C   UNL     1      26.605  -0.628  54.139  1.00  0.00     0.269 C 
ATOM     15  N   UNL     1      27.238   0.409  54.792  1.00  0.00    -0.354 N 
ATOM     16  O   UNL     1      27.187  -1.497  53.501  1.00  0.00    -0.268 OA
ATOM     17  C   UNL     1      28.670   0.492  54.896  1.00  0.00     0.143 C 
ATOM     18  H   UNL     1      26.645   0.993  55.375  1.00  0.00     0.163 HD
ENDBRANCH   9  14
ENDBRANCH   7   8
ENDBRANCH   1   7
BRANCH   4  19
ATOM     19  N   UNL     1      24.717   5.071  50.156  1.00  0.00    -0.308 N 
ATOM     20  C   UNL     1      26.042   5.192  49.754  1.00  0.00     0.323 C 
ATOM     21  O   UNL     1      26.879   4.301  49.821  1.00  0.00    -0.248 OA
ATOM     22  N   UNL     1      26.284   6.468  49.258  1.00  0.00    -0.308 N 
ATOM     23  H   UNL     1      24.120   5.865  49.995  1.00  0.00     0.171 HD
ATOM     24  H   UNL     1      25.513   7.116  49.291  1.00  0.00     0.171 HD
BRANCH  22  25
ATOM     25  C   UNL     1      27.494   6.971  48.733  1.00  0.00     0.043 A 
ATOM     26  C   UNL     1      28.407   6.215  48.000  1.00  0.00     0.028 A 
ATOM     27  C   UNL     1      27.779   8.323  48.968  1.00  0.00     0.040 A 
ATOM     28  C   UNL     1      29.580   6.798  47.513  1.00  0.00     0.023 A 
ATOM     29  C   UNL     1      28.958   8.928  48.479  1.00  0.00     0.076 A 
ATOM     30  C   UNL     1      29.855   8.146  47.747  1.00  0.00     0.053 A 
ATOM     31  Cl  UNL     1      31.314   8.788  47.092  1.00  0.00    -0.084 Cl
BRANCH  29  32
ATOM     32  C   UNL     1      29.208  10.392  48.724  1.00  0.00     0.417 C 
ATOM     33  F   UNL     1      29.388  11.097  47.568  1.00  0.00    -0.166 F 
ATOM     34  F   UNL     1      28.186  11.019  49.368  1.00  0.00    -0.166 F 
ATOM     35  F   UNL     1      30.332  10.617  49.460  1.00  0.00    -0.166 F 
ENDBRANCH  29  32
ENDBRANCH  22  25
ENDBRANCH   4  19
TORSDOF 6
ENDMDL
MODEL 11
REMARK minimizedAffinity -8.51139355
REMARK minimizedRMSD -1
REMARK SMILES CNC(=O)c1cc(Oc2ccc(NC(=O)Nc3ccc(Cl)c(C(F)(F)F)c3)cc2)ccn1
REMARK SMILES IDX 9 1 10 2 11 3 12 4 28 5 29 6 8 7 7 8 5 9 6 10 32 11 31 12
REMARK SMILES IDX 30 13 3 14 2 15 4 16 1 17 13 19 14 20 15 21 16 22 17 25
REMARK SMILES IDX 18 26 27 27 19 28 22 29 20 30 21 31 23 32 24 33 25 34 26 35
REMARK H PARENT 2 18 13 23 16 24
ROOT
ATOM      1  C   UNL     1      22.203   1.199  51.868  1.00  0.00     0.127 A 
ATOM      2  C   UNL     1      22.394   2.360  52.613  1.00  0.00     0.049 A 
ATOM      3  C   UNL     1      22.657   3.563  51.956  1.00  0.00     0.030 A 
ATOM      4  C   UNL     1      22.744   3.613  50.556  1.00  0.00     0.043 A 
ATOM      5  C   UNL     1      22.581   2.430  49.827  1.00  0.00     0.030 A 
ATOM      6  C   UNL     1      22.318   1.223  50.482  1.00  0.00     0.049 A 
ENDROOT
BRANCH   1   7
ATOM      7  O   UNL     1      21.967   0.003  52.495  1.00  0.00    -0.457 OA
BRANCH   7   8
ATOM      8  C   UNL     1      22.857  -0.406  53.465  1.00  0.00     0.131 A 
ATOM      9  C   UNL     1      25.147  -0.681  54.056  1.00  0.00     0.131 A 
ATOM     10  C   UNL     1      24.201  -0.268  53.131  1.00  0.00     0.081 A 
ATOM     11  N   UNL     1      24.840  -1.214  55.274  1.00  0.00    -0.251 NA
ATOM     12  C   UNL     1      23.529  -1.341  55.557  1.00  0.00     0.116 A 
ATOM     13  C   UNL     1      22.511  -0.961  54.696  1.00  0.00     0.067 A 
BRANCH   9  14
ATOM     14  C   UNL     1      26.605  -0.572  53.728  1.00  0.00     0.269 C 
ATOM     15  N   UNL     1      27.383  -0.087  54.759  1.00  0.00    -0.354 N 
ATOM     16  O   UNL     1      27.043  -0.911  52.636  1.00  0.00    -0.268 OA
ATOM     17  C   UNL     1      28.819  -0.056  54.690  1.00  0.00     0.143 C 
ATOM     18  H   UNL     1      26.908   0.050  55.647  1.00  0.00     0.163 HD
ENDBRANCH   9  14
ENDBRANCH   7   8
ENDBRANCH   1   7
BRANCH   4  19
ATOM     19  N   UNL     1      23.002   4.873  49.973  1.00  0.00    -0.308 N 
ATOM     20  C   UNL     1      24.208   5.341  49.465  1.00  0.00     0.323 C 
ATOM     21  O   UNL     1      25.252   4.704  49.442  1.00  0.00    -0.248 OA
ATOM     22  N   UNL     1      24.062   6.636  48.981  1.00  0.00    -0.308 N 
ATOM     23  H   UNL     1      22.205   5.481  49.881  1.00  0.00     0.171 HD
ATOM     24  H   UNL     1      23.152   7.057  49.092  1.00  0.00     0.171 HD
BRANCH  22  25
ATOM     25  C   UNL     1      25.045   7.442  48.368  1.00  0.00     0.043 A 
ATOM     26  C   UNL     1      25.130   7.671  46.997  1.00  0.00     0.028 A 
ATOM     27  C   UNL     1      25.990   8.046  49.208  1.00  0.00     0.040 A 
ATOM     28  C   UNL     1      26.136   8.489  46.476  1.00  0.00     0.023 A 
ATOM     29  C   UNL     1      27.010   8.879  48.698  1.00  0.00     0.076 A 
ATOM     30  C   UNL     1      27.070   9.092  47.319  1.00  0.00     0.053 A 
ATOM     31  Cl  UNL     1      28.265  10.102  46.594  1.00  0.00    -0.084 Cl
BRANCH  29  32
ATOM     32  C   UNL     1      27.982   9.537  49.640  1.00  0.00     0.417 C 
ATOM     33  F   UNL     1      28.062  10.889  49.456  1.00  0.00    -0.166 F 
ATOM     34  F   UNL     1      27.666   9.374  50.954  1.00  0.00    -0.166 F 
ATOM     35  F   UNL     1      29.257   9.080  49.484  1.00  0.00    -0.166 F 
ENDBRANCH  29  32
ENDBRANCH  22  25
ENDBRANCH   4  19
TORSDOF 6
ENDMDL
MODEL 12
REMARK minimizedAffinity -8.41328144
REMARK minimizedRMSD -1
REMARK SMILES CNC(=O)c1cc(Oc2ccc(NC(=O)Nc3ccc(Cl)c(C(F)(F)F)c3)cc2)ccn1
REMARK SMILES IDX 9 1 10 2 11 3 12 4 28 5 29 6 8 7 7 8 5 9 6 10 32 11 31 12
REMARK SMILES IDX 30 13 3 14 2 15 4 16 1 17 13 19 14 20 15 21 16 22 17 25
REMARK SMILES IDX 18 26 27 27 19 28 22 29 20 30 21 31 23 32 24 33 25 34 26 35
REMARK H PARENT 2 18 13 23 16 24
ROOT
ATOM      1  C   UNL     1      27.956   6.985  47.783  1.00  0.00     0.127 A 
ATOM      2  C   UNL     1      26.624   7.374  47.908  1.00  0.00     0.049 A 
ATOM      3  C   UNL     1      25.700   6.489  48.468  1.00  0.00     0.030 A 
ATOM      4  C   UNL     1      26.095   5.212  48.895  1.00  0.00     0.043 A 
ATOM      5  C   UNL     1      27.430   4.830  48.731  1.00  0.00     0.030 A 
ATOM      6  C   UNL     1      28.359   5.711  48.170  1.00  0.00     0.049 A 
ENDROOT
BRANCH   1   7
ATOM      7  O   UNL     1      28.874   7.829  47.214  1.00  0.00    -0.457 OA
BRANCH   7   8
ATOM      8  C   UNL     1      29.480   8.767  48.022  1.00  0.00     0.131 A 
ATOM      9  C   UNL     1      29.552  11.053  48.686  1.00  0.00     0.131 A 
ATOM     10  C   UNL     1      28.972  10.058  47.914  1.00  0.00     0.081 A 
ATOM     11  N   UNL     1      30.590  10.842  49.546  1.00  0.00    -0.251 NA
ATOM     12  C   UNL     1      31.061   9.581  49.616  1.00  0.00     0.116 A 
ATOM     13  C   UNL     1      30.550   8.522  48.882  1.00  0.00     0.067 A 
BRANCH   9  14
ATOM     14  C   UNL     1      29.053  12.462  48.583  1.00  0.00     0.269 C 
ATOM     15  N   UNL     1      29.533  13.154  47.491  1.00  0.00    -0.354 N 
ATOM     16  O   UNL     1      28.272  12.926  49.404  1.00  0.00    -0.268 OA
ATOM     17  C   UNL     1      29.051  14.462  47.137  1.00  0.00     0.143 C 
ATOM     18  H   UNL     1      30.086  12.614  46.831  1.00  0.00     0.163 HD
ENDBRANCH   9  14
ENDBRANCH   7   8
ENDBRANCH   1   7
BRANCH   4  19
ATOM     19  N   UNL     1      25.098   4.387  49.461  1.00  0.00    -0.308 N 
ATOM     20  C   UNL     1      25.245   3.466  50.491  1.00  0.00     0.323 C 
ATOM     21  O   UNL     1      26.292   3.237  51.081  1.00  0.00    -0.248 OA
ATOM     22  N   UNL     1      24.032   2.845  50.763  1.00  0.00    -0.308 N 
ATOM     23  H   UNL     1      24.168   4.518  49.098  1.00  0.00     0.171 HD
ATOM     24  H   UNL     1      23.253   3.104  50.178  1.00  0.00     0.171 HD
BRANCH  22  25
ATOM     25  C   UNL     1      23.766   1.872  51.752  1.00  0.00     0.043 A 
ATOM     26  C   UNL     1      22.490   1.438  52.102  1.00  0.00     0.028 A 
ATOM     27  C   UNL     1      24.869   1.314  52.412  1.00  0.00     0.040 A 
ATOM     28  C   UNL     1      22.318   0.466  53.092  1.00  0.00     0.023 A 
ATOM     29  C   UNL     1      24.713   0.328  53.410  1.00  0.00     0.076 A 
ATOM     30  C   UNL     1      23.421  -0.089  53.741  1.00  0.00     0.053 A 
ATOM     31  Cl  UNL     1      23.121  -1.297  54.934  1.00  0.00    -0.084 Cl
BRANCH  29  32
ATOM     32  C   UNL     1      25.927  -0.272  54.069  1.00  0.00     0.417 C 
ATOM     33  F   UNL     1      25.860  -0.233  55.433  1.00  0.00    -0.166 F 
ATOM     34  F   UNL     1      26.126  -1.582  53.759  1.00  0.00    -0.166 F 
ATOM     35  F   UNL     1      27.077   0.386  53.748  1.00  0.00    -0.166 F 
ENDBRANCH  29  32
ENDBRANCH  22  25
ENDBRANCH   4  19
TORSDOF 6
ENDMDL
MODEL 13
REMARK minimizedAffinity -8.3844471
REMARK minimizedRMSD -1
REMARK SMILES CNC(=O)c1cc(Oc2ccc(NC(=O)Nc3ccc(Cl)c(C(F)(F)F)c3)cc2)ccn1
REMARK SMILES IDX 9 1 10 2 11 3 12 4 28 5 29 6 8 7 7 8 5 9 6 10 32 11 31 12
REMARK SMILES IDX 30 13 3 14 2 15 4 16 1 17 13 19 14 20 15 21 16 22 17 25
REMARK SMILES IDX 18 26 27 27 19 28 22 29 20 30 21 31 23 32 24 33 25 34 26 35
REMARK H PARENT 2 18 13 23 16 24
ROOT
ATOM      1  C   UNL     1      21.329   9.155  48.922  1.00  0.00     0.127 A 
ATOM      2  C   UNL     1      22.712   8.998  48.890  1.00  0.00     0.049 A 
ATOM      3  C   UNL     1      23.316   8.055  49.723  1.00  0.00     0.030 A 
ATOM      4  C   UNL     1      22.548   7.273  50.599  1.00  0.00     0.043 A 
ATOM      5  C   UNL     1      21.163   7.468  50.639  1.00  0.00     0.030 A 
ATOM      6  C   UNL     1      20.554   8.413  49.807  1.00  0.00     0.049 A 
ENDROOT
BRANCH   1   7
ATOM      7  O   UNL     1      20.718  10.093  48.130  1.00  0.00    -0.457 OA
BRANCH   7   8
ATOM      8  C   UNL     1      21.204  11.383  48.162  1.00  0.00     0.131 A 
ATOM      9  C   UNL     1      21.193  13.471  49.306  1.00  0.00     0.131 A 
ATOM     10  C   UNL     1      20.757  12.157  49.228  1.00  0.00     0.081 A 
ATOM     11  N   UNL     1      22.034  14.050  48.402  1.00  0.00    -0.251 NA
ATOM     12  C   UNL     1      22.438  13.271  47.378  1.00  0.00     0.116 A 
ATOM     13  C   UNL     1      22.053  11.950  47.213  1.00  0.00     0.067 A 
BRANCH   9  14
ATOM     14  C   UNL     1      20.717  14.349  50.424  1.00  0.00     0.269 C 
ATOM     15  N   UNL     1      19.734  15.245  50.061  1.00  0.00    -0.354 N 
ATOM     16  O   UNL     1      21.169  14.243  51.558  1.00  0.00    -0.268 OA
ATOM     17  C   UNL     1      19.044  16.061  51.024  1.00  0.00     0.143 C 
ATOM     18  H   UNL     1      19.373  15.149  49.116  1.00  0.00     0.163 HD
ENDBRANCH   9  14
ENDBRANCH   7   8
ENDBRANCH   1   7
BRANCH   4  19
ATOM     19  N   UNL     1      23.239   6.334  51.396  1.00  0.00    -0.308 N 
ATOM     20  C   UNL     1      23.562   5.022  51.073  1.00  0.00     0.323 C 
ATOM     21  O   UNL     1      23.292   4.476  50.011  1.00  0.00    -0.248 OA
ATOM     22  N   UNL     1      24.241   4.416  52.122  1.00  0.00    -0.308 N 
ATOM     23  H   UNL     1      23.568   6.677  52.283  1.00  0.00     0.171 HD
ATOM     24  H   UNL     1      24.369   4.970  52.954  1.00  0.00     0.171 HD
BRANCH  22  25
ATOM     25  C   UNL     1      24.756   3.102  52.170  1.00  0.00     0.043 A 
ATOM     26  C   UNL     1      25.977   2.717  51.619  1.00  0.00     0.028 A 
ATOM     27  C   UNL     1      23.979   2.134  52.820  1.00  0.00     0.040 A 
ATOM     28  C   UNL     1      26.412   1.393  51.716  1.00  0.00     0.023 A 
ATOM     29  C   UNL     1      24.407   0.793  52.931  1.00  0.00     0.076 A 
ATOM     30  C   UNL     1      25.635   0.435  52.370  1.00  0.00     0.053 A 
ATOM     31  Cl  UNL     1      26.257  -1.170  52.462  1.00  0.00    -0.084 Cl
BRANCH  29  32
ATOM     32  C   UNL     1      23.558  -0.207  53.669  1.00  0.00     0.417 C 
ATOM     33  F   UNL     1      22.411   0.343  54.170  1.00  0.00    -0.166 F 
ATOM     34  F   UNL     1      23.145  -1.249  52.897  1.00  0.00    -0.166 F 
ATOM     35  F   UNL     1      24.196  -0.745  54.746  1.00  0.00    -0.166 F 
ENDBRANCH  29  32
ENDBRANCH  22  25
ENDBRANCH   4  19
TORSDOF 6
ENDMDL
MODEL 14
REMARK minimizedAffinity -8.37925816
REMARK minimizedRMSD -1
REMARK SMILES CNC(=O)c1cc(Oc2ccc(NC(=O)Nc3ccc(Cl)c(C(F)(F)F)c3)cc2)ccn1
REMARK SMILES IDX 9 1 10 2 11 3 12 4 28 5 29 6 8 7 7 8 5 9 6 10 32 11 31 12
REMARK SMILES IDX 30 13 3 14 2 15 4 16 1 17 13 19 14 20 15 21 16 22 17 25
REMARK SMILES IDX 18 26 27 27 19 28 22 29 20 30 21 31 23 32 24 33 25 34 26 35
REMARK H PARENT 2 18 13 23 16 24
ROOT
ATOM      1  C   UNL     1      23.037   1.501  51.997  1.00  0.00     0.127 A 
ATOM      2  C   UNL     1      23.376   2.568  52.826  1.00  0.00     0.049 A 
ATOM      3  C   UNL     1      23.697   3.803  52.260  1.00  0.00     0.030 A 
ATOM      4  C   UNL     1      23.695   3.978  50.868  1.00  0.00     0.043 A 
ATOM      5  C   UNL     1      23.384   2.885  50.052  1.00  0.00     0.030 A 
ATOM      6  C   UNL     1      23.062   1.647  50.614  1.00  0.00     0.049 A 
ENDROOT
BRANCH   1   7
ATOM      7  O   UNL     1      22.741   0.274  52.532  1.00  0.00    -0.457 OA
BRANCH   7   8
ATOM      8  C   UNL     1      23.529  -0.190  53.564  1.00  0.00     0.131 A 
ATOM      9  C   UNL     1      25.729  -0.322  54.466  1.00  0.00     0.131 A 
ATOM     10  C   UNL     1      24.879   0.133  53.469  1.00  0.00     0.081 A 
ATOM     11  N   UNL     1      25.321  -1.066  55.534  1.00  0.00    -0.251 NA
ATOM     12  C   UNL     1      24.007  -1.366  55.587  1.00  0.00     0.116 A 
ATOM     13  C   UNL     1      23.083  -0.961  54.637  1.00  0.00     0.067 A 
BRANCH   9  14
ATOM     14  C   UNL     1      27.194  -0.019  54.391  1.00  0.00     0.269 C 
ATOM     15  N   UNL     1      27.969  -1.072  53.951  1.00  0.00    -0.354 N 
ATOM     16  O   UNL     1      27.635   1.086  54.684  1.00  0.00    -0.268 OA
ATOM     17  C   UNL     1      29.371  -0.928  53.667  1.00  0.00     0.143 C 
ATOM     18  H   UNL     1      27.462  -1.894  53.637  1.00  0.00     0.163 HD
ENDBRANCH   9  14
ENDBRANCH   7   8
ENDBRANCH   1   7
BRANCH   4  19
ATOM     19  N   UNL     1      24.021   5.263  50.381  1.00  0.00    -0.308 N 
ATOM     20  C   UNL     1      25.237   5.689  49.861  1.00  0.00     0.323 C 
ATOM     21  O   UNL     1      26.231   4.985  49.737  1.00  0.00    -0.248 OA
ATOM     22  N   UNL     1      25.166   7.027  49.493  1.00  0.00    -0.308 N 
ATOM     23  H   UNL     1      23.267   5.930  50.377  1.00  0.00     0.171 HD
ATOM     24  H   UNL     1      24.295   7.499  49.681  1.00  0.00     0.171 HD
BRANCH  22  25
ATOM     25  C   UNL     1      26.181   7.813  48.906  1.00  0.00     0.043 A 
ATOM     26  C   UNL     1      27.176   8.475  49.624  1.00  0.00     0.028 A 
ATOM     27  C   UNL     1      26.178   7.923  47.509  1.00  0.00     0.040 A 
ATOM     28  C   UNL     1      28.146   9.230  48.959  1.00  0.00     0.023 A 
ATOM     29  C   UNL     1      27.154   8.678  46.823  1.00  0.00     0.076 A 
ATOM     30  C   UNL     1      28.139   9.330  47.567  1.00  0.00     0.053 A 
ATOM     31  Cl  UNL     1      29.385  10.264  46.828  1.00  0.00    -0.084 Cl
BRANCH  29  32
ATOM     32  C   UNL     1      27.134   8.739  45.319  1.00  0.00     0.417 C 
ATOM     33  F   UNL     1      27.137  10.020  44.843  1.00  0.00    -0.166 F 
ATOM     34  F   UNL     1      28.206   8.139  44.733  1.00  0.00    -0.166 F 
ATOM     35  F   UNL     1      26.021   8.161  44.784  1.00  0.00    -0.166 F 
ENDBRANCH  29  32
ENDBRANCH  22  25
ENDBRANCH   4  19
TORSDOF 6
ENDMDL
MODEL 15
REMARK minimizedAffinity -8.34970284
REMARK minimizedRMSD -1
REMARK SMILES CNC(=O)c1cc(Oc2ccc(NC(=O)Nc3ccc(Cl)c(C(F)(F)F)c3)cc2)ccn1
REMARK SMILES IDX 9 1 10 2 11 3 12 4 28 5 29 6 8 7 7 8 5 9 6 10 32 11 31 12
REMARK SMILES IDX 30 13 3 14 2 15 4 16 1 17 13 19 14 20 15 21 16 22 17 25
REMARK SMILES IDX 18 26 27 27 19 28 22 29 20 30 21 31 23 32 24 33 25 34 26 35
REMARK H PARENT 2 18 13 23 16 24
ROOT
ATOM      1  C   UNL     1      27.343   7.034  48.435  1.00  0.00     0.127 A 
ATOM      2  C   UNL     1      25.999   7.140  48.784  1.00  0.00     0.049 A 
ATOM      3  C   UNL     1      25.300   5.999  49.183  1.00  0.00     0.030 A 
ATOM      4  C   UNL     1      25.932   4.746  49.223  1.00  0.00     0.043 A 
ATOM      5  C   UNL     1      27.273   4.656  48.838  1.00  0.00     0.030 A 
ATOM      6  C   UNL     1      27.977   5.795  48.437  1.00  0.00     0.049 A 
ENDROOT
BRANCH   1   7
ATOM      7  O   UNL     1      28.041   8.137  48.018  1.00  0.00    -0.457 OA
BRANCH   7   8
ATOM      8  C   UNL     1      29.179   7.938  47.265  1.00  0.00     0.131 A 
ATOM      9  C   UNL     1      31.515   7.480  47.297  1.00  0.00     0.131 A 
ATOM     10  C   UNL     1      30.333   7.671  47.995  1.00  0.00     0.081 A 
ATOM     11  N   UNL     1      31.616   7.539  45.937  1.00  0.00    -0.251 NA
ATOM     12  C   UNL     1      30.478   7.809  45.266  1.00  0.00     0.116 A 
ATOM     13  C   UNL     1      29.251   8.018  45.875  1.00  0.00     0.067 A 
BRANCH   9  14
ATOM     14  C   UNL     1      32.787   7.215  48.044  1.00  0.00     0.269 C 
ATOM     15  N   UNL     1      33.504   6.133  47.576  1.00  0.00    -0.354 N 
ATOM     16  O   UNL     1      33.142   7.926  48.976  1.00  0.00    -0.268 OA
ATOM     17  C   UNL     1      34.819   5.815  48.061  1.00  0.00     0.143 C 
ATOM     18  H   UNL     1      33.150   5.700  46.727  1.00  0.00     0.163 HD
ENDBRANCH   9  14
ENDBRANCH   7   8
ENDBRANCH   1   7
BRANCH   4  19
ATOM     19  N   UNL     1      25.154   3.648  49.649  1.00  0.00    -0.308 N 
ATOM     20  C   UNL     1      25.203   3.001  50.877  1.00  0.00     0.323 C 
ATOM     21  O   UNL     1      25.947   3.305  51.800  1.00  0.00    -0.248 OA
ATOM     22  N   UNL     1      24.283   1.960  50.915  1.00  0.00    -0.308 N 
ATOM     23  H   UNL     1      24.456   3.330  48.996  1.00  0.00     0.171 HD
ATOM     24  H   UNL     1      23.755   1.796  50.072  1.00  0.00     0.171 HD
BRANCH  22  25
ATOM     25  C   UNL     1      24.016   1.086  51.992  1.00  0.00     0.043 A 
ATOM     26  C   UNL     1      24.980   0.314  52.634  1.00  0.00     0.028 A 
ATOM     27  C   UNL     1      22.688   1.005  52.434  1.00  0.00     0.040 A 
ATOM     28  C   UNL     1      24.627  -0.522  53.697  1.00  0.00     0.023 A 
ATOM     29  C   UNL     1      22.315   0.168  53.509  1.00  0.00     0.076 A 
ATOM     30  C   UNL     1      23.304  -0.595  54.135  1.00  0.00     0.053 A 
ATOM     31  Cl  UNL     1      22.959  -1.635  55.465  1.00  0.00    -0.084 Cl
BRANCH  29  32
ATOM     32  C   UNL     1      20.884   0.139  53.974  1.00  0.00     0.417 C 
ATOM     33  F   UNL     1      20.070   0.943  53.228  1.00  0.00    -0.166 F 
ATOM     34  F   UNL     1      20.316  -1.097  53.916  1.00  0.00    -0.166 F 
ATOM     35  F   UNL     1      20.740   0.576  55.257  1.00  0.00    -0.166 F 
ENDBRANCH  29  32
ENDBRANCH  22  25
ENDBRANCH   4  19
TORSDOF 6
ENDMDL
MODEL 16
REMARK minimizedAffinity -8.34787655
REMARK minimizedRMSD -1
REMARK SMILES CNC(=O)c1cc(Oc2ccc(NC(=O)Nc3ccc(Cl)c(C(F)(F)F)c3)cc2)ccn1
REMARK SMILES IDX 9 1 10 2 11 3 12 4 28 5 29 6 8 7 7 8 5 9 6 10 32 11 31 12
REMARK SMILES IDX 30 13 3 14 2 15 4 16 1 17 13 19 14 20 15 21 16 22 17 25
REMARK SMILES IDX 18 26 27 27 19 28 22 29 20 30 21 31 23 32 24 33 25 34 26 35
REMARK H PARENT 2 18 13 23 16 24
ROOT
ATOM      1  C   UNL     1      27.897   6.631  48.465  1.00  0.00     0.127 A 
ATOM      2  C   UNL     1      28.221   5.278  48.412  1.00  0.00     0.049 A 
ATOM      3  C   UNL     1      27.301   4.332  48.868  1.00  0.00     0.030 A 
ATOM      4  C   UNL     1      26.060   4.730  49.388  1.00  0.00     0.043 A 
ATOM      5  C   UNL     1      25.766   6.095  49.462  1.00  0.00     0.030 A 
ATOM      6  C   UNL     1      26.685   7.046  49.009  1.00  0.00     0.049 A 
ENDROOT
BRANCH   1   7
ATOM      7  O   UNL     1      28.796   7.577  48.046  1.00  0.00    -0.457 OA
BRANCH   7   8
ATOM      8  C   UNL     1      28.325   8.625  47.283  1.00  0.00     0.131 A 
ATOM      9  C   UNL     1      27.940  10.971  47.170  1.00  0.00     0.131 A 
ATOM     10  C   UNL     1      28.415   9.878  47.879  1.00  0.00     0.081 A 
ATOM     11  N   UNL     1      27.389  10.892  45.925  1.00  0.00    -0.251 NA
ATOM     12  C   UNL     1      27.310   9.659  45.385  1.00  0.00     0.116 A 
ATOM     13  C   UNL     1      27.754   8.508  46.016  1.00  0.00     0.067 A 
BRANCH   9  14
ATOM     14  C   UNL     1      27.995  12.337  47.784  1.00  0.00     0.269 C 
ATOM     15  N   UNL     1      28.107  13.365  46.871  1.00  0.00    -0.354 N 
ATOM     16  O   UNL     1      27.925  12.498  48.997  1.00  0.00    -0.268 OA
ATOM     17  C   UNL     1      28.020  14.748  47.255  1.00  0.00     0.143 C 
ATOM     18  H   UNL     1      28.042  13.097  45.893  1.00  0.00     0.163 HD
ENDBRANCH   9  14
ENDBRANCH   7   8
ENDBRANCH   1   7
BRANCH   4  19
ATOM     19  N   UNL     1      25.185   3.707  49.815  1.00  0.00    -0.308 N 
ATOM     20  C   UNL     1      25.255   2.966  50.988  1.00  0.00     0.323 C 
ATOM     21  O   UNL     1      26.110   3.105  51.854  1.00  0.00    -0.248 OA
ATOM     22  N   UNL     1      24.214   2.047  51.046  1.00  0.00    -0.308 N 
ATOM     23  H   UNL     1      24.398   3.529  49.213  1.00  0.00     0.171 HD
ATOM     24  H   UNL     1      23.598   2.015  50.249  1.00  0.00     0.171 HD
BRANCH  22  25
ATOM     25  C   UNL     1      23.929   1.134  52.084  1.00  0.00     0.043 A 
ATOM     26  C   UNL     1      24.880   0.322  52.699  1.00  0.00     0.028 A 
ATOM     27  C   UNL     1      22.599   1.053  52.517  1.00  0.00     0.040 A 
ATOM     28  C   UNL     1      24.509  -0.552  53.725  1.00  0.00     0.023 A 
ATOM     29  C   UNL     1      22.208   0.178  53.554  1.00  0.00     0.076 A 
ATOM     30  C   UNL     1      23.183  -0.624  54.153  1.00  0.00     0.053 A 
ATOM     31  Cl  UNL     1      22.817  -1.714  55.437  1.00  0.00    -0.084 Cl
BRANCH  29  32
ATOM     32  C   UNL     1      20.775   0.149  54.012  1.00  0.00     0.417 C 
ATOM     33  F   UNL     1      20.622   0.586  55.298  1.00  0.00    -0.166 F 
ATOM     34  F   UNL     1      19.948   0.935  53.269  1.00  0.00    -0.166 F 
ATOM     35  F   UNL     1      20.243  -1.105  53.995  1.00  0.00    -0.166 F 
ENDBRANCH  29  32
ENDBRANCH  22  25
ENDBRANCH   4  19
TORSDOF 6
ENDMDL
MODEL 17
REMARK minimizedAffinity -8.27615452
REMARK minimizedRMSD -1
REMARK SMILES CNC(=O)c1cc(Oc2ccc(NC(=O)Nc3ccc(Cl)c(C(F)(F)F)c3)cc2)ccn1
REMARK SMILES IDX 9 1 10 2 11 3 12 4 28 5 29 6 8 7 7 8 5 9 6 10 32 11 31 12
REMARK SMILES IDX 30 13 3 14 2 15 4 16 1 17 13 19 14 20 15 21 16 22 17 25
REMARK SMILES IDX 18 26 27 27 19 28 22 29 20 30 21 31 23 32 24 33 25 34 26 35
REMARK H PARENT 2 18 13 23 16 24
ROOT
ATOM      1  C   UNL     1      28.922   7.522  46.689  1.00  0.00     0.127 A 
ATOM      2  C   UNL     1      29.381   6.501  47.518  1.00  0.00     0.049 A 
ATOM      3  C   UNL     1      28.541   5.989  48.509  1.00  0.00     0.030 A 
ATOM      4  C   UNL     1      27.245   6.499  48.686  1.00  0.00     0.043 A 
ATOM      5  C   UNL     1      26.814   7.545  47.864  1.00  0.00     0.030 A 
ATOM      6  C   UNL     1      27.653   8.062  46.872  1.00  0.00     0.049 A 
ENDROOT
BRANCH   1   7
ATOM      7  O   UNL     1      29.739   8.055  45.727  1.00  0.00    -0.457 OA
BRANCH   7   8
ATOM      8  C   UNL     1      30.679   8.985  46.118  1.00  0.00     0.131 A 
ATOM      9  C   UNL     1      32.847   9.338  47.037  1.00  0.00     0.131 A 
ATOM     10  C   UNL     1      31.868   8.454  46.607  1.00  0.00     0.081 A 
ATOM     11  N   UNL     1      32.714  10.695  47.008  1.00  0.00    -0.251 NA
ATOM     12  C   UNL     1      31.544  11.171  46.536  1.00  0.00     0.116 A 
ATOM     13  C   UNL     1      30.507  10.368  46.089  1.00  0.00     0.067 A 
BRANCH   9  14
ATOM     14  C   UNL     1      34.134   8.810  47.594  1.00  0.00     0.269 C 
ATOM     15  N   UNL     1      34.063   7.511  48.052  1.00  0.00    -0.354 N 
ATOM     16  O   UNL     1      35.152   9.491  47.610  1.00  0.00    -0.268 OA
ATOM     17  C   UNL     1      35.226   6.781  48.478  1.00  0.00     0.143 C 
ATOM     18  H   UNL     1      33.187   7.026  47.876  1.00  0.00     0.163 HD
ENDBRANCH   9  14
ENDBRANCH   7   8
ENDBRANCH   1   7
BRANCH   4  19
ATOM     19  N   UNL     1      26.459   5.915  49.703  1.00  0.00    -0.308 N 
ATOM     20  C   UNL     1      26.159   4.569  49.875  1.00  0.00     0.323 C 
ATOM     21  O   UNL     1      26.555   3.665  49.149  1.00  0.00    -0.248 OA
ATOM     22  N   UNL     1      25.351   4.389  50.990  1.00  0.00    -0.308 N 
ATOM     23  H   UNL     1      26.113   6.549  50.404  1.00  0.00     0.171 HD
ATOM     24  H   UNL     1      25.071   5.224  51.481  1.00  0.00     0.171 HD
BRANCH  22  25
ATOM     25  C   UNL     1      24.856   3.172  51.508  1.00  0.00     0.043 A 
ATOM     26  C   UNL     1      23.503   2.855  51.610  1.00  0.00     0.028 A 
ATOM     27  C   UNL     1      25.799   2.230  51.939  1.00  0.00     0.040 A 
ATOM     28  C   UNL     1      23.101   1.623  52.132  1.00  0.00     0.023 A 
ATOM     29  C   UNL     1      25.410   0.979  52.465  1.00  0.00     0.076 A 
ATOM     30  C   UNL     1      24.046   0.687  52.555  1.00  0.00     0.053 A 
ATOM     31  Cl  UNL     1      23.464  -0.816  53.166  1.00  0.00    -0.084 Cl
BRANCH  29  32
ATOM     32  C   UNL     1      26.457  -0.018  52.883  1.00  0.00     0.417 C 
ATOM     33  F   UNL     1      26.341  -0.386  54.194  1.00  0.00    -0.166 F 
ATOM     34  F   UNL     1      26.414  -1.183  52.181  1.00  0.00    -0.166 F 
ATOM     35  F   UNL     1      27.724   0.468  52.759  1.00  0.00    -0.166 F 
ENDBRANCH  29  32
ENDBRANCH  22  25
ENDBRANCH   4  19
TORSDOF 6
ENDMDL
MODEL 18
REMARK minimizedAffinity -8.27449322
REMARK minimizedRMSD -1
REMARK SMILES CNC(=O)c1cc(Oc2ccc(NC(=O)Nc3ccc(Cl)c(C(F)(F)F)c3)cc2)ccn1
REMARK SMILES IDX 9 1 10 2 11 3 12 4 28 5 29 6 8 7 7 8 5 9 6 10 32 11 31 12
REMARK SMILES IDX 30 13 3 14 2 15 4 16 1 17 13 19 14 20 15 21 16 22 17 25
REMARK SMILES IDX 18 26 27 27 19 28 22 29 20 30 21 31 23 32 24 33 25 34 26 35
REMARK H PARENT 2 18 13 23 16 24
ROOT
ATOM      1  C   UNL     1      28.150   8.478  47.178  1.00  0.00     0.127 A 
ATOM      2  C   UNL     1      29.207   7.625  47.488  1.00  0.00     0.049 A 
ATOM      3  C   UNL     1      28.940   6.385  48.072  1.00  0.00     0.030 A 
ATOM      4  C   UNL     1      27.623   5.995  48.360  1.00  0.00     0.043 A 
ATOM      5  C   UNL     1      26.579   6.880  48.070  1.00  0.00     0.030 A 
ATOM      6  C   UNL     1      26.842   8.122  47.487  1.00  0.00     0.049 A 
ENDROOT
BRANCH   1   7
ATOM      7  O   UNL     1      28.392   9.710  46.626  1.00  0.00    -0.457 OA
BRANCH   7   8
ATOM      8  C   UNL     1      28.336  10.812  47.453  1.00  0.00     0.131 A 
ATOM      9  C   UNL     1      27.067  12.705  48.139  1.00  0.00     0.131 A 
ATOM     10  C   UNL     1      27.176  11.572  47.348  1.00  0.00     0.081 A 
ATOM     11  N   UNL     1      28.029  13.120  49.014  1.00  0.00    -0.251 NA
ATOM     12  C   UNL     1      29.142  12.363  49.080  1.00  0.00     0.116 A 
ATOM     13  C   UNL     1      29.344  11.217  48.328  1.00  0.00     0.067 A 
BRANCH   9  14
ATOM     14  C   UNL     1      25.845  13.567  48.041  1.00  0.00     0.269 C 
ATOM     15  N   UNL     1      24.698  12.886  47.694  1.00  0.00    -0.354 N 
ATOM     16  O   UNL     1      25.889  14.769  48.273  1.00  0.00    -0.268 OA
ATOM     17  C   UNL     1      23.402  13.509  47.701  1.00  0.00     0.143 C 
ATOM     18  H   UNL     1      24.782  11.874  47.640  1.00  0.00     0.163 HD
ENDBRANCH   9  14
ENDBRANCH   7   8
ENDBRANCH   1   7
BRANCH   4  19
ATOM     19  N   UNL     1      27.443   4.720  48.939  1.00  0.00    -0.308 N 
ATOM     20  C   UNL     1      26.451   4.325  49.829  1.00  0.00     0.323 C 
ATOM     21  O   UNL     1      25.556   5.049  50.246  1.00  0.00    -0.248 OA
ATOM     22  N   UNL     1      26.613   2.990  50.177  1.00  0.00    -0.308 N 
ATOM     23  H   UNL     1      28.087   4.009  48.635  1.00  0.00     0.171 HD
ATOM     24  H   UNL     1      27.414   2.518  49.786  1.00  0.00     0.171 HD
BRANCH  22  25
ATOM     25  C   UNL     1      25.799   2.219  51.034  1.00  0.00     0.043 A 
ATOM     26  C   UNL     1      24.408   2.288  51.067  1.00  0.00     0.028 A 
ATOM     27  C   UNL     1      26.446   1.327  51.899  1.00  0.00     0.040 A 
ATOM     28  C   UNL     1      23.678   1.482  51.946  1.00  0.00     0.023 A 
ATOM     29  C   UNL     1      25.724   0.503  52.791  1.00  0.00     0.076 A 
ATOM     30  C   UNL     1      24.330   0.593  52.802  1.00  0.00     0.053 A 
ATOM     31  Cl  UNL     1      23.353  -0.378  53.839  1.00  0.00    -0.084 Cl
BRANCH  29  32
ATOM     32  C   UNL     1      26.457  -0.467  53.677  1.00  0.00     0.417 C 
ATOM     33  F   UNL     1      27.807  -0.255  53.688  1.00  0.00    -0.166 F 
ATOM     34  F   UNL     1      26.078  -0.408  54.983  1.00  0.00    -0.166 F 
ATOM     35  F   UNL     1      26.302  -1.762  53.282  1.00  0.00    -0.166 F 
ENDBRANCH  29  32
ENDBRANCH  22  25
ENDBRANCH   4  19
TORSDOF 6
ENDMDL
MODEL 19
REMARK minimizedAffinity -8.2233448
REMARK minimizedRMSD -1
REMARK SMILES CNC(=O)c1cc(Oc2ccc(NC(=O)Nc3ccc(Cl)c(C(F)(F)F)c3)cc2)ccn1
REMARK SMILES IDX 9 1 10 2 11 3 12 4 28 5 29 6 8 7 7 8 5 9 6 10 32 11 31 12
REMARK SMILES IDX 30 13 3 14 2 15 4 16 1 17 13 19 14 20 15 21 16 22 17 25
REMARK SMILES IDX 18 26 27 27 19 28 22 29 20 30 21 31 23 32 24 33 25 34 26 35
REMARK H PARENT 2 18 13 23 16 24
ROOT
ATOM      1  C   UNL     1      24.067   3.690  49.128  1.00  0.00     0.127 A 
ATOM      2  C   UNL     1      25.358   3.381  49.548  1.00  0.00     0.049 A 
ATOM      3  C   UNL     1      26.304   4.401  49.668  1.00  0.00     0.030 A 
ATOM      4  C   UNL     1      25.972   5.729  49.359  1.00  0.00     0.043 A 
ATOM      5  C   UNL     1      24.679   6.013  48.909  1.00  0.00     0.030 A 
ATOM      6  C   UNL     1      23.729   4.995  48.785  1.00  0.00     0.049 A 
ENDROOT
BRANCH   1   7
ATOM      7  O   UNL     1      23.130   2.700  48.980  1.00  0.00    -0.457 OA
BRANCH   7   8
ATOM      8  C   UNL     1      22.305   2.424  50.050  1.00  0.00     0.131 A 
ATOM      9  C   UNL     1      22.081   1.292  52.132  1.00  0.00     0.131 A 
ATOM     10  C   UNL     1      22.867   1.623  51.038  1.00  0.00     0.081 A 
ATOM     11  N   UNL     1      20.791   1.704  52.297  1.00  0.00    -0.251 NA
ATOM     12  C   UNL     1      20.279   2.471  51.314  1.00  0.00     0.116 A 
ATOM     13  C   UNL     1      20.984   2.851  50.182  1.00  0.00     0.067 A 
BRANCH   9  14
ATOM     14  C   UNL     1      22.638   0.410  53.209  1.00  0.00     0.269 C 
ATOM     15  N   UNL     1      23.982   0.130  53.074  1.00  0.00    -0.354 N 
ATOM     16  O   UNL     1      21.939   0.004  54.129  1.00  0.00    -0.268 OA
ATOM     17  C   UNL     1      24.727  -0.568  54.086  1.00  0.00     0.143 C 
ATOM     18  H   UNL     1      24.464   0.623  52.327  1.00  0.00     0.163 HD
ENDBRANCH   9  14
ENDBRANCH   7   8
ENDBRANCH   1   7
BRANCH   4  19
ATOM     19  N   UNL     1      26.986   6.698  49.521  1.00  0.00    -0.308 N 
ATOM     20  C   UNL     1      28.059   6.951  48.675  1.00  0.00     0.323 C 
ATOM     21  O   UNL     1      28.282   6.355  47.629  1.00  0.00    -0.248 OA
ATOM     22  N   UNL     1      28.844   7.981  49.179  1.00  0.00    -0.308 N 
ATOM     23  H   UNL     1      26.890   7.299  50.322  1.00  0.00     0.171 HD
ATOM     24  H   UNL     1      28.565   8.363  50.070  1.00  0.00     0.171 HD
BRANCH  22  25
ATOM     25  C   UNL     1      30.003   8.543  48.601  1.00  0.00     0.043 A 
ATOM     26  C   UNL     1      30.038   9.775  47.953  1.00  0.00     0.028 A 
ATOM     27  C   UNL     1      31.188   7.802  48.697  1.00  0.00     0.040 A 
ATOM     28  C   UNL     1      31.233  10.258  47.412  1.00  0.00     0.023 A 
ATOM     29  C   UNL     1      32.405   8.277  48.160  1.00  0.00     0.076 A 
ATOM     30  C   UNL     1      32.411   9.517  47.516  1.00  0.00     0.053 A 
ATOM     31  Cl  UNL     1      33.844  10.196  46.839  1.00  0.00    -0.084 Cl
BRANCH  29  32
ATOM     32  C   UNL     1      33.663   7.465  48.318  1.00  0.00     0.417 C 
ATOM     33  F   UNL     1      33.471   6.334  49.059  1.00  0.00    -0.166 F 
ATOM     34  F   UNL     1      34.185   7.033  47.137  1.00  0.00    -0.166 F 
ATOM     35  F   UNL     1      34.653   8.149  48.958  1.00  0.00    -0.166 F 
ENDBRANCH  29  32
ENDBRANCH  22  25
ENDBRANCH   4  19
TORSDOF 6
ENDMDL
MODEL 20
REMARK minimizedAffinity -8.19224072
REMARK minimizedRMSD -1
REMARK SMILES CNC(=O)c1cc(Oc2ccc(NC(=O)Nc3ccc(Cl)c(C(F)(F)F)c3)cc2)ccn1
REMARK SMILES IDX 9 1 10 2 11 3 12 4 28 5 29 6 8 7 7 8 5 9 6 10 32 11 31 12
REMARK SMILES IDX 30 13 3 14 2 15 4 16 1 17 13 19 14 20 15 21 16 22 17 25
REMARK SMILES IDX 18 26 27 27 19 28 22 29 20 30 21 31 23 32 24 33 25 34 26 35
REMARK H PARENT 2 18 13 23 16 24
ROOT
ATOM      1  C   UNL     1      27.980   6.350  48.159  1.00  0.00     0.127 A 
ATOM      2  C   UNL     1      26.936   7.105  48.691  1.00  0.00     0.049 A 
ATOM      3  C   UNL     1      25.980   6.483  49.496  1.00  0.00     0.030 A 
ATOM      4  C   UNL     1      26.051   5.107  49.764  1.00  0.00     0.043 A 
ATOM      5  C   UNL     1      27.088   4.362  49.194  1.00  0.00     0.030 A 
ATOM      6  C   UNL     1      28.048   4.980  48.386  1.00  0.00     0.049 A 
ENDROOT
BRANCH   1   7
ATOM      7  O   UNL     1      28.915   6.937  47.346  1.00  0.00    -0.457 OA
BRANCH   7   8
ATOM      8  C   UNL     1      30.174   7.159  47.864  1.00  0.00     0.131 A 
ATOM      9  C   UNL     1      32.451   6.466  47.889  1.00  0.00     0.131 A 
ATOM     10  C   UNL     1      31.167   6.307  47.392  1.00  0.00     0.081 A 
ATOM     11  N   UNL     1      32.800   7.407  48.812  1.00  0.00    -0.251 NA
ATOM     12  C   UNL     1      31.809   8.208  49.253  1.00  0.00     0.116 A 
ATOM     13  C   UNL     1      30.496   8.123  48.819  1.00  0.00     0.067 A 
BRANCH   9  14
ATOM     14  C   UNL     1      33.547   5.553  47.427  1.00  0.00     0.269 C 
ATOM     15  N   UNL     1      33.889   4.573  48.334  1.00  0.00    -0.354 N 
ATOM     16  O   UNL     1      34.063   5.681  46.323  1.00  0.00    -0.268 OA
ATOM     17  C   UNL     1      34.806   3.513  48.012  1.00  0.00     0.143 C 
ATOM     18  H   UNL     1      33.304   4.513  49.164  1.00  0.00     0.163 HD
ENDBRANCH   9  14
ENDBRANCH   7   8
ENDBRANCH   1   7
BRANCH   4  19
ATOM     19  N   UNL     1      25.050   4.563  50.597  1.00  0.00    -0.308 N 
ATOM     20  C   UNL     1      24.066   3.644  50.251  1.00  0.00     0.323 C 
ATOM     21  O   UNL     1      23.928   3.152  49.139  1.00  0.00    -0.248 OA
ATOM     22  N   UNL     1      23.263   3.356  51.348  1.00  0.00    -0.308 N 
ATOM     23  H   UNL     1      25.085   4.847  51.562  1.00  0.00     0.171 HD
ATOM     24  H   UNL     1      23.466   3.857  52.198  1.00  0.00     0.171 HD
BRANCH  22  25
ATOM     25  C   UNL     1      22.176   2.456  51.406  1.00  0.00     0.043 A 
ATOM     26  C   UNL     1      22.305   1.080  51.579  1.00  0.00     0.028 A 
ATOM     27  C   UNL     1      20.890   2.999  51.283  1.00  0.00     0.040 A 
ATOM     28  C   UNL     1      21.172   0.263  51.630  1.00  0.00     0.023 A 
ATOM     29  C   UNL     1      19.735   2.188  51.337  1.00  0.00     0.076 A 
ATOM     30  C   UNL     1      19.894   0.811  51.513  1.00  0.00     0.053 A 
ATOM     31  Cl  UNL     1      18.551  -0.266  51.607  1.00  0.00    -0.084 Cl
BRANCH  29  32
ATOM     32  C   UNL     1      18.371   2.817  51.237  1.00  0.00     0.417 C 
ATOM     33  F   UNL     1      18.385   4.154  51.519  1.00  0.00    -0.166 F 
ATOM     34  F   UNL     1      17.814   2.720  49.999  1.00  0.00    -0.166 F 
ATOM     35  F   UNL     1      17.478   2.276  52.112  1.00  0.00    -0.166 F 
ENDBRANCH  29  32
ENDBRANCH  22  25
ENDBRANCH   4  19
TORSDOF 6
ENDMDL
