MODEL 1
REMARK VINA RESULT:    -8.517      0.000      0.000
REMARK INTER + INTRA:         -13.585
REMARK INTER:                 -12.500
REMARK INTRA:                  -1.085
REMARK UNBOUND:                -1.085
REMARK SMILES O=C(NOC[C@H](O)CO)c1ccc(F)c(F)c1Nc1ccc(I)cc1F
REMARK SMILES IDX 4 1 3 2 1 3 2 4 10 6 11 7 17 8 12 9 15 10 13 11 16 12 14 13
REMARK SMILES IDX 18 14 19 16 20 17 25 18 21 19 24 20 22 21 26 22 23 23 5 24
REMARK SMILES IDX 6 25 7 26 8 28 9 29
REMARK H PARENT 3 5 18 15 7 27 9 30
ROOT
ATOM      1  O   UNL     1      -5.800  58.835  33.617  1.00  0.00    -0.271 OA
ENDROOT
BRANCH   1   2
ATOM      2  N   UNL     1      -4.868  57.778  33.447  1.00  0.00    -0.231 N 
ATOM      3  O   UNL     1      -4.234  58.134  35.639  1.00  0.00    -0.267 OA
ATOM      4  C   UNL     1      -4.039  57.613  34.542  1.00  0.00     0.277 C 
ATOM      5  H   UNL     1      -4.464  57.731  32.517  1.00  0.00     0.199 HD
BRANCH   4   6
ATOM      6  C   UNL     1      -2.843  56.748  34.331  1.00  0.00     0.068 A 
ATOM      7  C   UNL     1      -3.037  55.384  34.030  1.00  0.00     0.019 A 
ATOM      8  C   UNL     1      -1.540  57.290  34.483  1.00  0.00     0.091 A 
ATOM      9  C   UNL     1      -1.941  54.544  33.863  1.00  0.00     0.043 A 
ATOM     10  C   UNL     1      -0.461  56.408  34.310  1.00  0.00     0.183 A 
ATOM     11  C   UNL     1      -0.661  55.063  34.005  1.00  0.00     0.161 A 
ATOM     12  F   UNL     1       0.803  56.821  34.491  1.00  0.00    -0.201 F 
ATOM     13  F   UNL     1       0.390  54.246  33.866  1.00  0.00    -0.204 F 
BRANCH   8  14
ATOM     14  N   UNL     1      -1.382  58.671  34.738  1.00  0.00    -0.350 N 
ATOM     15  H   UNL     1      -2.035  59.024  35.451  1.00  0.00     0.167 HD
BRANCH  14  16
ATOM     16  C   UNL     1      -0.453  59.644  34.328  1.00  0.00     0.075 A 
ATOM     17  C   UNL     1       0.332  59.529  33.178  1.00  0.00     0.030 A 
ATOM     18  C   UNL     1      -0.276  60.792  35.120  1.00  0.00     0.147 A 
ATOM     19  C   UNL     1       1.263  60.521  32.838  1.00  0.00     0.017 A 
ATOM     20  C   UNL     1       0.641  61.789  34.794  1.00  0.00     0.056 A 
ATOM     21  C   UNL     1       1.414  61.645  33.650  1.00  0.00     0.016 A 
ATOM     22  F   UNL     1      -1.011  60.938  36.234  1.00  0.00    -0.205 F 
ATOM     23  I   UNL     1       2.797  63.108  33.143  1.00  0.00    -0.044 I 
ENDBRANCH  14  16
ENDBRANCH   8  14
ENDBRANCH   4   6
ENDBRANCH   1   2
BRANCH   1  24
ATOM     24  C   UNL     1      -7.136  58.304  33.578  1.00  0.00     0.227 C 
BRANCH  24  25
ATOM     25  C   UNL     1      -7.927  59.069  32.508  1.00  0.00     0.168 C 
BRANCH  25  26
ATOM     26  O   UNL     1      -7.074  59.384  31.395  1.00  0.00    -0.388 OA
ATOM     27  H   UNL     1      -6.287  59.851  31.763  1.00  0.00     0.211 HD
ENDBRANCH  25  26
BRANCH  25  28
ATOM     28  C   UNL     1      -8.463  60.394  33.051  1.00  0.00     0.190 C 
BRANCH  28  29
ATOM     29  O   UNL     1      -7.484  61.005  33.893  1.00  0.00    -0.394 OA
ATOM     30  H   UNL     1      -6.762  61.257  33.281  1.00  0.00     0.210 HD
ENDBRANCH  28  29
ENDBRANCH  25  28
ENDBRANCH  24  25
ENDBRANCH   1  24
TORSDOF 9
ENDMDL
MODEL 2
REMARK VINA RESULT:    -8.254      9.271     11.439
REMARK INTER + INTRA:         -13.200
REMARK INTER:                 -11.379
REMARK INTRA:                  -1.821
REMARK UNBOUND:                -1.085
REMARK SMILES O=C(NOC[C@H](O)CO)c1ccc(F)c(F)c1Nc1ccc(I)cc1F
REMARK SMILES IDX 4 1 3 2 1 3 2 4 10 6 11 7 17 8 12 9 15 10 13 11 16 12 14 13
REMARK SMILES IDX 18 14 19 16 20 17 25 18 21 19 24 20 22 21 26 22 23 23 5 24
REMARK SMILES IDX 6 25 7 26 8 28 9 29
REMARK H PARENT 3 5 18 15 7 27 9 30
ROOT
ATOM      1  O   UNL     1      -9.934  69.181  33.925  1.00  0.00    -0.271 OA
ENDROOT
BRANCH   1   2
ATOM      2  N   UNL     1      -8.651  69.074  34.524  1.00  0.00    -0.231 N 
ATOM      3  O   UNL     1      -7.766  69.629  32.465  1.00  0.00    -0.267 OA
ATOM      4  C   UNL     1      -7.621  69.210  33.612  1.00  0.00     0.277 C 
ATOM      5  H   UNL     1      -8.585  68.347  35.229  1.00  0.00     0.199 HD
BRANCH   4   6
ATOM      6  C   UNL     1      -6.268  68.805  34.090  1.00  0.00     0.068 A 
ATOM      7  C   UNL     1      -5.545  69.693  34.914  1.00  0.00     0.019 A 
ATOM      8  C   UNL     1      -5.709  67.568  33.674  1.00  0.00     0.091 A 
ATOM      9  C   UNL     1      -4.266  69.358  35.347  1.00  0.00     0.043 A 
ATOM     10  C   UNL     1      -4.414  67.270  34.130  1.00  0.00     0.183 A 
ATOM     11  C   UNL     1      -3.711  68.149  34.950  1.00  0.00     0.161 A 
ATOM     12  F   UNL     1      -3.787  66.149  33.740  1.00  0.00    -0.201 F 
ATOM     13  F   UNL     1      -2.470  67.843  35.351  1.00  0.00    -0.204 F 
BRANCH   8  14
ATOM     14  N   UNL     1      -6.479  66.682  32.887  1.00  0.00    -0.350 N 
ATOM     15  H   UNL     1      -6.266  66.750  31.883  1.00  0.00     0.167 HD
BRANCH  14  16
ATOM     16  C   UNL     1      -7.380  65.642  33.178  1.00  0.00     0.075 A 
ATOM     17  C   UNL     1      -7.063  64.545  33.984  1.00  0.00     0.030 A 
ATOM     18  C   UNL     1      -8.669  65.682  32.618  1.00  0.00     0.147 A 
ATOM     19  C   UNL     1      -7.996  63.525  34.213  1.00  0.00     0.017 A 
ATOM     20  C   UNL     1      -9.609  64.679  32.840  1.00  0.00     0.056 A 
ATOM     21  C   UNL     1      -9.265  63.596  33.637  1.00  0.00     0.016 A 
ATOM     22  F   UNL     1      -9.011  66.719  31.838  1.00  0.00    -0.205 F 
ATOM     23  I   UNL     1     -10.641  62.079  33.978  1.00  0.00    -0.044 I 
ENDBRANCH  14  16
ENDBRANCH   8  14
ENDBRANCH   4   6
ENDBRANCH   1   2
BRANCH   1  24
ATOM     24  C   UNL     1     -10.734  68.050  34.308  1.00  0.00     0.227 C 
BRANCH  24  25
ATOM     25  C   UNL     1     -11.922  67.950  33.342  1.00  0.00     0.168 C 
BRANCH  25  26
ATOM     26  O   UNL     1     -11.525  68.376  32.028  1.00  0.00    -0.388 OA
ATOM     27  H   UNL     1     -10.568  68.157  31.934  1.00  0.00     0.211 HD
ENDBRANCH  25  26
BRANCH  25  28
ATOM     28  C   UNL     1     -13.074  68.856  33.778  1.00  0.00     0.190 C 
BRANCH  28  29
ATOM     29  O   UNL     1     -12.612  69.797  34.748  1.00  0.00    -0.394 OA
ATOM     30  H   UNL     1     -11.939  69.304  35.262  1.00  0.00     0.210 HD
ENDBRANCH  28  29
ENDBRANCH  25  28
ENDBRANCH  24  25
ENDBRANCH   1  24
TORSDOF 9
ENDMDL
MODEL 3
REMARK VINA RESULT:    -8.031      6.275      8.447
REMARK INTER + INTRA:         -12.873
REMARK INTER:                 -11.301
REMARK INTRA:                  -1.572
REMARK UNBOUND:                -1.085
REMARK SMILES O=C(NOC[C@H](O)CO)c1ccc(F)c(F)c1Nc1ccc(I)cc1F
REMARK SMILES IDX 4 1 3 2 1 3 2 4 10 6 11 7 17 8 12 9 15 10 13 11 16 12 14 13
REMARK SMILES IDX 18 14 19 16 20 17 25 18 21 19 24 20 22 21 26 22 23 23 5 24
REMARK SMILES IDX 6 25 7 26 8 28 9 29
REMARK H PARENT 3 5 18 15 7 27 9 30
ROOT
ATOM      1  O   UNL     1     -10.218  53.748  33.734  1.00  0.00    -0.271 OA
ENDROOT
BRANCH   1   2
ATOM      2  N   UNL     1      -9.829  53.311  32.441  1.00  0.00    -0.231 N 
ATOM      3  O   UNL     1      -8.482  55.182  32.336  1.00  0.00    -0.267 OA
ATOM      4  C   UNL     1      -9.021  54.223  31.787  1.00  0.00     0.277 C 
ATOM      5  H   UNL     1     -10.572  52.856  31.920  1.00  0.00     0.199 HD
BRANCH   4   6
ATOM      6  C   UNL     1      -8.826  53.994  30.327  1.00  0.00     0.068 A 
ATOM      7  C   UNL     1      -9.825  54.429  29.433  1.00  0.00     0.019 A 
ATOM      8  C   UNL     1      -7.676  53.302  29.865  1.00  0.00     0.091 A 
ATOM      9  C   UNL     1      -9.689  54.197  28.067  1.00  0.00     0.043 A 
ATOM     10  C   UNL     1      -7.578  53.085  28.481  1.00  0.00     0.183 A 
ATOM     11  C   UNL     1      -8.566  53.526  27.603  1.00  0.00     0.161 A 
ATOM     12  F   UNL     1      -6.553  52.391  27.962  1.00  0.00    -0.201 F 
ATOM     13  F   UNL     1      -8.451  53.285  26.291  1.00  0.00    -0.204 F 
BRANCH   8  14
ATOM     14  N   UNL     1      -6.672  52.922  30.784  1.00  0.00    -0.350 N 
ATOM     15  H   UNL     1      -6.663  51.910  30.971  1.00  0.00     0.167 HD
BRANCH  14  16
ATOM     16  C   UNL     1      -5.604  53.594  31.404  1.00  0.00     0.075 A 
ATOM     17  C   UNL     1      -4.682  54.386  30.715  1.00  0.00     0.030 A 
ATOM     18  C   UNL     1      -5.428  53.456  32.793  1.00  0.00     0.147 A 
ATOM     19  C   UNL     1      -3.621  55.008  31.387  1.00  0.00     0.017 A 
ATOM     20  C   UNL     1      -4.381  54.071  33.476  1.00  0.00     0.056 A 
ATOM     21  C   UNL     1      -3.475  54.845  32.765  1.00  0.00     0.016 A 
ATOM     22  F   UNL     1      -6.293  52.703  33.490  1.00  0.00    -0.205 F 
ATOM     23  I   UNL     1      -1.898  55.766  33.753  1.00  0.00    -0.044 I 
ENDBRANCH  14  16
ENDBRANCH   8  14
ENDBRANCH   4   6
ENDBRANCH   1   2
BRANCH   1  24
ATOM     24  C   UNL     1      -9.742  52.812  34.717  1.00  0.00     0.227 C 
BRANCH  24  25
ATOM     25  C   UNL     1      -9.178  53.604  35.903  1.00  0.00     0.168 C 
BRANCH  25  26
ATOM     26  O   UNL     1      -9.740  53.117  37.133  1.00  0.00    -0.388 OA
ATOM     27  H   UNL     1     -10.146  52.241  36.934  1.00  0.00     0.211 HD
ENDBRANCH  25  26
BRANCH  25  28
ATOM     28  C   UNL     1      -9.535  55.088  35.805  1.00  0.00     0.190 C 
BRANCH  28  29
ATOM     29  O   UNL     1     -10.861  55.302  36.289  1.00  0.00    -0.394 OA
ATOM     30  H   UNL     1     -11.354  55.630  35.509  1.00  0.00     0.210 HD
ENDBRANCH  28  29
ENDBRANCH  25  28
ENDBRANCH  24  25
ENDBRANCH   1  24
TORSDOF 9
ENDMDL
MODEL 4
REMARK VINA RESULT:    -7.988      8.238     10.467
REMARK INTER + INTRA:         -12.809
REMARK INTER:                 -10.327
REMARK INTRA:                  -2.483
REMARK UNBOUND:                -1.085
REMARK SMILES O=C(NOC[C@H](O)CO)c1ccc(F)c(F)c1Nc1ccc(I)cc1F
REMARK SMILES IDX 4 1 3 2 1 3 2 4 10 6 11 7 17 8 12 9 15 10 13 11 16 12 14 13
REMARK SMILES IDX 18 14 19 16 20 17 25 18 21 19 24 20 22 21 26 22 23 23 5 24
REMARK SMILES IDX 6 25 7 26 8 28 9 29
REMARK H PARENT 3 5 18 15 7 27 9 30
ROOT
ATOM      1  O   UNL     1     -10.816  68.556  32.957  1.00  0.00    -0.271 OA
ENDROOT
BRANCH   1   2
ATOM      2  N   UNL     1      -9.447  68.529  33.330  1.00  0.00    -0.231 N 
ATOM      3  O   UNL     1      -9.252  66.614  32.055  1.00  0.00    -0.267 OA
ATOM      4  C   UNL     1      -8.793  67.394  32.888  1.00  0.00     0.277 C 
ATOM      5  H   UNL     1      -9.270  68.858  34.274  1.00  0.00     0.199 HD
BRANCH   4   6
ATOM      6  C   UNL     1      -7.455  67.135  33.492  1.00  0.00     0.068 A 
ATOM      7  C   UNL     1      -6.453  68.119  33.370  1.00  0.00     0.019 A 
ATOM      8  C   UNL     1      -7.192  65.894  34.129  1.00  0.00     0.091 A 
ATOM      9  C   UNL     1      -5.183  67.892  33.891  1.00  0.00     0.043 A 
ATOM     10  C   UNL     1      -5.897  65.702  34.639  1.00  0.00     0.183 A 
ATOM     11  C   UNL     1      -4.915  66.684  34.521  1.00  0.00     0.161 A 
ATOM     12  F   UNL     1      -5.544  64.538  35.206  1.00  0.00    -0.201 F 
ATOM     13  F   UNL     1      -3.685  66.461  35.001  1.00  0.00    -0.204 F 
BRANCH   8  14
ATOM     14  N   UNL     1      -8.232  64.948  34.275  1.00  0.00    -0.350 N 
ATOM     15  H   UNL     1      -9.098  65.360  34.648  1.00  0.00     0.167 HD
BRANCH  14  16
ATOM     16  C   UNL     1      -8.390  63.599  33.912  1.00  0.00     0.075 A 
ATOM     17  C   UNL     1      -8.676  63.176  32.612  1.00  0.00     0.030 A 
ATOM     18  C   UNL     1      -8.276  62.609  34.904  1.00  0.00     0.147 A 
ATOM     19  C   UNL     1      -8.851  61.816  32.317  1.00  0.00     0.017 A 
ATOM     20  C   UNL     1      -8.442  61.254  34.628  1.00  0.00     0.056 A 
ATOM     21  C   UNL     1      -8.735  60.862  33.328  1.00  0.00     0.016 A 
ATOM     22  F   UNL     1      -8.002  62.976  36.166  1.00  0.00    -0.205 F 
ATOM     23  I   UNL     1      -8.999  58.851  32.886  1.00  0.00    -0.044 I 
ENDBRANCH  14  16
ENDBRANCH   8  14
ENDBRANCH   4   6
ENDBRANCH   1   2
BRANCH   1  24
ATOM     24  C   UNL     1     -11.632  68.556  34.141  1.00  0.00     0.227 C 
BRANCH  24  25
ATOM     25  C   UNL     1     -12.223  67.152  34.320  1.00  0.00     0.168 C 
BRANCH  25  26
ATOM     26  O   UNL     1     -11.172  66.202  34.565  1.00  0.00    -0.388 OA
ATOM     27  H   UNL     1     -10.607  66.581  35.278  1.00  0.00     0.211 HD
ENDBRANCH  25  26
BRANCH  25  28
ATOM     28  C   UNL     1     -12.958  66.691  33.060  1.00  0.00     0.190 C 
BRANCH  28  29
ATOM     29  O   UNL     1     -12.024  66.160  32.119  1.00  0.00    -0.394 OA
ATOM     30  H   UNL     1     -12.261  65.211  32.052  1.00  0.00     0.210 HD
ENDBRANCH  28  29
ENDBRANCH  25  28
ENDBRANCH  24  25
ENDBRANCH   1  24
TORSDOF 9
ENDMDL
MODEL 5
REMARK VINA RESULT:    -7.934      9.072     11.556
REMARK INTER + INTRA:         -12.731
REMARK INTER:                 -10.918
REMARK INTRA:                  -1.813
REMARK UNBOUND:                -1.085
REMARK SMILES O=C(NOC[C@H](O)CO)c1ccc(F)c(F)c1Nc1ccc(I)cc1F
REMARK SMILES IDX 4 1 3 2 1 3 2 4 10 6 11 7 17 8 12 9 15 10 13 11 16 12 14 13
REMARK SMILES IDX 18 14 19 16 20 17 25 18 21 19 24 20 22 21 26 22 23 23 5 24
REMARK SMILES IDX 6 25 7 26 8 28 9 29
REMARK H PARENT 3 5 18 15 7 27 9 30
ROOT
ATOM      1  O   UNL     1      -7.157  63.725  34.577  1.00  0.00    -0.271 OA
ENDROOT
BRANCH   1   2
ATOM      2  N   UNL     1      -6.941  65.116  34.755  1.00  0.00    -0.231 N 
ATOM      3  O   UNL     1      -6.351  65.198  32.525  1.00  0.00    -0.267 OA
ATOM      4  C   UNL     1      -6.403  65.723  33.635  1.00  0.00     0.277 C 
ATOM      5  H   UNL     1      -6.570  65.362  35.668  1.00  0.00     0.199 HD
BRANCH   4   6
ATOM      6  C   UNL     1      -5.859  67.097  33.834  1.00  0.00     0.068 A 
ATOM      7  C   UNL     1      -4.664  67.253  34.566  1.00  0.00     0.019 A 
ATOM      8  C   UNL     1      -6.569  68.220  33.336  1.00  0.00     0.091 A 
ATOM      9  C   UNL     1      -4.150  68.525  34.800  1.00  0.00     0.043 A 
ATOM     10  C   UNL     1      -6.018  69.487  33.597  1.00  0.00     0.183 A 
ATOM     11  C   UNL     1      -4.832  69.632  34.313  1.00  0.00     0.161 A 
ATOM     12  F   UNL     1      -6.651  70.606  33.212  1.00  0.00    -0.201 F 
ATOM     13  F   UNL     1      -4.346  70.854  34.561  1.00  0.00    -0.204 F 
BRANCH   8  14
ATOM     14  N   UNL     1      -7.738  68.025  32.567  1.00  0.00    -0.350 N 
ATOM     15  H   UNL     1      -7.552  68.007  31.555  1.00  0.00     0.167 HD
BRANCH  14  16
ATOM     16  C   UNL     1      -9.077  67.727  32.875  1.00  0.00     0.075 A 
ATOM     17  C   UNL     1      -9.732  66.571  32.443  1.00  0.00     0.030 A 
ATOM     18  C   UNL     1      -9.818  68.643  33.643  1.00  0.00     0.147 A 
ATOM     19  C   UNL     1     -11.079  66.345  32.760  1.00  0.00     0.017 A 
ATOM     20  C   UNL     1     -11.155  68.431  33.969  1.00  0.00     0.056 A 
ATOM     21  C   UNL     1     -11.784  67.278  33.520  1.00  0.00     0.016 A 
ATOM     22  F   UNL     1      -9.224  69.766  34.076  1.00  0.00    -0.205 F 
ATOM     23  I   UNL     1     -13.780  66.937  33.982  1.00  0.00    -0.044 I 
ENDBRANCH  14  16
ENDBRANCH   8  14
ENDBRANCH   4   6
ENDBRANCH   1   2
BRANCH   1  24
ATOM     24  C   UNL     1      -8.570  63.466  34.521  1.00  0.00     0.227 C 
BRANCH  24  25
ATOM     25  C   UNL     1      -8.780  62.061  33.939  1.00  0.00     0.168 C 
BRANCH  25  26
ATOM     26  O   UNL     1      -7.608  61.258  34.155  1.00  0.00    -0.388 OA
ATOM     27  H   UNL     1      -6.849  61.881  34.247  1.00  0.00     0.211 HD
ENDBRANCH  25  26
BRANCH  25  28
ATOM     28  C   UNL     1      -9.016  62.113  32.430  1.00  0.00     0.190 C 
BRANCH  28  29
ATOM     29  O   UNL     1      -8.457  63.311  31.890  1.00  0.00    -0.394 OA
ATOM     30  H   UNL     1      -7.499  63.240  32.086  1.00  0.00     0.210 HD
ENDBRANCH  28  29
ENDBRANCH  25  28
ENDBRANCH  24  25
ENDBRANCH   1  24
TORSDOF 9
ENDMDL
MODEL 6
REMARK VINA RESULT:    -7.925      5.733      7.222
REMARK INTER + INTRA:         -12.717
REMARK INTER:                 -10.608
REMARK INTRA:                  -2.109
REMARK UNBOUND:                -1.085
REMARK SMILES O=C(NOC[C@H](O)CO)c1ccc(F)c(F)c1Nc1ccc(I)cc1F
REMARK SMILES IDX 4 1 3 2 1 3 2 4 10 6 11 7 17 8 12 9 15 10 13 11 16 12 14 13
REMARK SMILES IDX 18 14 19 16 20 17 25 18 21 19 24 20 22 21 26 22 23 23 5 24
REMARK SMILES IDX 6 25 7 26 8 28 9 29
REMARK H PARENT 3 5 18 15 7 27 9 30
ROOT
ATOM      1  O   UNL     1      -9.552  51.909  33.804  1.00  0.00    -0.271 OA
ENDROOT
BRANCH   1   2
ATOM      2  N   UNL     1      -8.881  51.550  32.606  1.00  0.00    -0.231 N 
ATOM      3  O   UNL     1      -6.909  51.695  33.797  1.00  0.00    -0.267 OA
ATOM      4  C   UNL     1      -7.504  51.603  32.726  1.00  0.00     0.277 C 
ATOM      5  H   UNL     1      -9.312  51.922  31.765  1.00  0.00     0.199 HD
BRANCH   4   6
ATOM      6  C   UNL     1      -6.736  51.548  31.449  1.00  0.00     0.068 A 
ATOM      7  C   UNL     1      -6.851  50.402  30.636  1.00  0.00     0.019 A 
ATOM      8  C   UNL     1      -5.868  52.615  31.098  1.00  0.00     0.091 A 
ATOM      9  C   UNL     1      -6.119  50.306  29.457  1.00  0.00     0.043 A 
ATOM     10  C   UNL     1      -5.144  52.477  29.901  1.00  0.00     0.183 A 
ATOM     11  C   UNL     1      -5.270  51.345  29.100  1.00  0.00     0.161 A 
ATOM     12  F   UNL     1      -4.258  53.412  29.520  1.00  0.00    -0.201 F 
ATOM     13  F   UNL     1      -4.550  51.238  27.976  1.00  0.00    -0.204 F 
BRANCH   8  14
ATOM     14  N   UNL     1      -5.812  53.769  31.911  1.00  0.00    -0.350 N 
ATOM     15  H   UNL     1      -6.740  54.073  32.238  1.00  0.00     0.167 HD
BRANCH  14  16
ATOM     16  C   UNL     1      -4.768  54.522  32.475  1.00  0.00     0.075 A 
ATOM     17  C   UNL     1      -4.044  54.122  33.601  1.00  0.00     0.030 A 
ATOM     18  C   UNL     1      -4.433  55.760  31.898  1.00  0.00     0.147 A 
ATOM     19  C   UNL     1      -3.032  54.932  34.133  1.00  0.00     0.017 A 
ATOM     20  C   UNL     1      -3.427  56.575  32.412  1.00  0.00     0.056 A 
ATOM     21  C   UNL     1      -2.730  56.156  33.537  1.00  0.00     0.016 A 
ATOM     22  F   UNL     1      -5.106  56.180  30.815  1.00  0.00    -0.205 F 
ATOM     23  I   UNL     1      -1.232  57.353  34.334  1.00  0.00    -0.044 I 
ENDBRANCH  14  16
ENDBRANCH   8  14
ENDBRANCH   4   6
ENDBRANCH   1   2
BRANCH   1  24
ATOM     24  C   UNL     1     -10.423  53.023  33.547  1.00  0.00     0.227 C 
BRANCH  24  25
ATOM     25  C   UNL     1      -9.728  54.302  34.034  1.00  0.00     0.168 C 
BRANCH  25  26
ATOM     26  O   UNL     1      -8.740  54.720  33.078  1.00  0.00    -0.388 OA
ATOM     27  H   UNL     1      -9.107  55.509  32.615  1.00  0.00     0.211 HD
ENDBRANCH  25  26
BRANCH  25  28
ATOM     28  C   UNL     1      -9.000  54.071  35.359  1.00  0.00     0.190 C 
BRANCH  28  29
ATOM     29  O   UNL     1      -9.750  53.170  36.175  1.00  0.00    -0.394 OA
ATOM     30  H   UNL     1      -9.687  52.310  35.708  1.00  0.00     0.210 HD
ENDBRANCH  28  29
ENDBRANCH  25  28
ENDBRANCH  24  25
ENDBRANCH   1  24
TORSDOF 9
ENDMDL
MODEL 7
REMARK VINA RESULT:    -7.920      9.371     11.519
REMARK INTER + INTRA:         -12.709
REMARK INTER:                 -11.510
REMARK INTRA:                  -1.200
REMARK UNBOUND:                -1.085
REMARK SMILES O=C(NOC[C@H](O)CO)c1ccc(F)c(F)c1Nc1ccc(I)cc1F
REMARK SMILES IDX 4 1 3 2 1 3 2 4 10 6 11 7 17 8 12 9 15 10 13 11 16 12 14 13
REMARK SMILES IDX 18 14 19 16 20 17 25 18 21 19 24 20 22 21 26 22 23 23 5 24
REMARK SMILES IDX 6 25 7 26 8 28 9 29
REMARK H PARENT 3 5 18 15 7 27 9 30
ROOT
ATOM      1  O   UNL     1     -10.057  69.305  33.750  1.00  0.00    -0.271 OA
ENDROOT
BRANCH   1   2
ATOM      2  N   UNL     1      -8.760  69.839  33.969  1.00  0.00    -0.231 N 
ATOM      3  O   UNL     1      -8.021  68.435  32.292  1.00  0.00    -0.267 OA
ATOM      4  C   UNL     1      -7.785  69.199  33.225  1.00  0.00     0.277 C 
ATOM      5  H   UNL     1      -8.565  70.063  34.940  1.00  0.00     0.199 HD
BRANCH   4   6
ATOM      6  C   UNL     1      -6.375  69.479  33.620  1.00  0.00     0.068 A 
ATOM      7  C   UNL     1      -5.730  70.611  33.080  1.00  0.00     0.019 A 
ATOM      8  C   UNL     1      -5.690  68.585  34.484  1.00  0.00     0.091 A 
ATOM      9  C   UNL     1      -4.403  70.878  33.401  1.00  0.00     0.043 A 
ATOM     10  C   UNL     1      -4.350  68.889  34.781  1.00  0.00     0.183 A 
ATOM     11  C   UNL     1      -3.724  70.014  34.249  1.00  0.00     0.161 A 
ATOM     12  F   UNL     1      -3.610  68.069  35.544  1.00  0.00    -0.201 F 
ATOM     13  F   UNL     1      -2.440  70.263  34.537  1.00  0.00    -0.204 F 
BRANCH   8  14
ATOM     14  N   UNL     1      -6.380  67.487  35.046  1.00  0.00    -0.350 N 
ATOM     15  H   UNL     1      -6.555  67.598  36.054  1.00  0.00     0.167 HD
BRANCH  14  16
ATOM     16  C   UNL     1      -6.988  66.336  34.515  1.00  0.00     0.075 A 
ATOM     17  C   UNL     1      -8.080  65.695  35.106  1.00  0.00     0.030 A 
ATOM     18  C   UNL     1      -6.469  65.773  33.336  1.00  0.00     0.147 A 
ATOM     19  C   UNL     1      -8.625  64.532  34.543  1.00  0.00     0.017 A 
ATOM     20  C   UNL     1      -7.001  64.621  32.762  1.00  0.00     0.056 A 
ATOM     21  C   UNL     1      -8.080  64.000  33.375  1.00  0.00     0.016 A 
ATOM     22  F   UNL     1      -5.419  66.360  32.738  1.00  0.00    -0.205 F 
ATOM     23  I   UNL     1      -8.890  62.275  32.550  1.00  0.00    -0.044 I 
ENDBRANCH  14  16
ENDBRANCH   8  14
ENDBRANCH   4   6
ENDBRANCH   1   2
BRANCH   1  24
ATOM     24  C   UNL     1     -10.260  68.176  34.617  1.00  0.00     0.227 C 
BRANCH  24  25
ATOM     25  C   UNL     1     -11.436  67.356  34.072  1.00  0.00     0.168 C 
BRANCH  25  26
ATOM     26  O   UNL     1     -11.865  66.397  35.054  1.00  0.00    -0.388 OA
ATOM     27  H   UNL     1     -12.804  66.607  35.266  1.00  0.00     0.211 HD
ENDBRANCH  25  26
BRANCH  25  28
ATOM     28  C   UNL     1     -11.038  66.570  32.823  1.00  0.00     0.190 C 
BRANCH  28  29
ATOM     29  O   UNL     1     -10.821  67.467  31.733  1.00  0.00    -0.394 OA
ATOM     30  H   UNL     1     -11.603  67.341  31.157  1.00  0.00     0.210 HD
ENDBRANCH  28  29
ENDBRANCH  25  28
ENDBRANCH  24  25
ENDBRANCH   1  24
TORSDOF 9
ENDMDL
MODEL 8
REMARK VINA RESULT:    -7.875      7.986     10.580
REMARK INTER + INTRA:         -12.644
REMARK INTER:                 -10.852
REMARK INTRA:                  -1.792
REMARK UNBOUND:                -1.085
REMARK SMILES O=C(NOC[C@H](O)CO)c1ccc(F)c(F)c1Nc1ccc(I)cc1F
REMARK SMILES IDX 4 1 3 2 1 3 2 4 10 6 11 7 17 8 12 9 15 10 13 11 16 12 14 13
REMARK SMILES IDX 18 14 19 16 20 17 25 18 21 19 24 20 22 21 26 22 23 23 5 24
REMARK SMILES IDX 6 25 7 26 8 28 9 29
REMARK H PARENT 3 5 18 15 7 27 9 30
ROOT
ATOM      1  O   UNL     1      -8.889  63.195  32.095  1.00  0.00    -0.271 OA
ENDROOT
BRANCH   1   2
ATOM      2  N   UNL     1      -7.633  63.780  32.408  1.00  0.00    -0.231 N 
ATOM      3  O   UNL     1      -8.526  64.327  34.466  1.00  0.00    -0.267 OA
ATOM      4  C   UNL     1      -7.637  64.439  33.624  1.00  0.00     0.277 C 
ATOM      5  H   UNL     1      -7.175  64.220  31.616  1.00  0.00     0.199 HD
BRANCH   4   6
ATOM      6  C   UNL     1      -6.474  65.335  33.884  1.00  0.00     0.068 A 
ATOM      7  C   UNL     1      -5.405  64.850  34.666  1.00  0.00     0.019 A 
ATOM      8  C   UNL     1      -6.481  66.666  33.392  1.00  0.00     0.091 A 
ATOM      9  C   UNL     1      -4.323  65.674  34.956  1.00  0.00     0.043 A 
ATOM     10  C   UNL     1      -5.371  67.467  33.710  1.00  0.00     0.183 A 
ATOM     11  C   UNL     1      -4.315  66.977  34.476  1.00  0.00     0.161 A 
ATOM     12  F   UNL     1      -5.319  68.754  33.334  1.00  0.00    -0.201 F 
ATOM     13  F   UNL     1      -3.282  67.773  34.777  1.00  0.00    -0.204 F 
BRANCH   8  14
ATOM     14  N   UNL     1      -7.545  67.104  32.573  1.00  0.00    -0.350 N 
ATOM     15  H   UNL     1      -7.296  67.133  31.574  1.00  0.00     0.167 HD
BRANCH  14  16
ATOM     16  C   UNL     1      -8.903  67.392  32.798  1.00  0.00     0.075 A 
ATOM     17  C   UNL     1      -9.953  66.691  32.199  1.00  0.00     0.030 A 
ATOM     18  C   UNL     1      -9.240  68.453  33.657  1.00  0.00     0.147 A 
ATOM     19  C   UNL     1     -11.287  67.044  32.442  1.00  0.00     0.017 A 
ATOM     20  C   UNL     1     -10.561  68.814  33.912  1.00  0.00     0.056 A 
ATOM     21  C   UNL     1     -11.584  68.106  33.296  1.00  0.00     0.016 A 
ATOM     22  F   UNL     1      -8.260  69.151  34.251  1.00  0.00    -0.205 F 
ATOM     23  I   UNL     1     -13.563  68.627  33.648  1.00  0.00    -0.044 I 
ENDBRANCH  14  16
ENDBRANCH   8  14
ENDBRANCH   4   6
ENDBRANCH   1   2
BRANCH   1  24
ATOM     24  C   UNL     1      -8.762  61.763  32.099  1.00  0.00     0.227 C 
BRANCH  24  25
ATOM     25  C   UNL     1      -9.633  61.205  33.232  1.00  0.00     0.168 C 
BRANCH  25  26
ATOM     26  O   UNL     1     -10.547  62.214  33.694  1.00  0.00    -0.388 OA
ATOM     27  H   UNL     1     -10.483  62.228  34.677  1.00  0.00     0.211 HD
ENDBRANCH  25  26
BRANCH  25  28
ATOM     28  C   UNL     1      -8.785  60.786  34.434  1.00  0.00     0.190 C 
BRANCH  28  29
ATOM     29  O   UNL     1      -7.476  61.348  34.324  1.00  0.00    -0.394 OA
ATOM     30  H   UNL     1      -6.901  60.582  34.115  1.00  0.00     0.210 HD
ENDBRANCH  28  29
ENDBRANCH  25  28
ENDBRANCH  24  25
ENDBRANCH   1  24
TORSDOF 9
ENDMDL
MODEL 9
REMARK VINA RESULT:    -7.871      8.776     11.720
REMARK INTER + INTRA:         -12.638
REMARK INTER:                 -10.422
REMARK INTRA:                  -2.216
REMARK UNBOUND:                -1.085
REMARK SMILES O=C(NOC[C@H](O)CO)c1ccc(F)c(F)c1Nc1ccc(I)cc1F
REMARK SMILES IDX 4 1 3 2 1 3 2 4 10 6 11 7 17 8 12 9 15 10 13 11 16 12 14 13
REMARK SMILES IDX 18 14 19 16 20 17 25 18 21 19 24 20 22 21 26 22 23 23 5 24
REMARK SMILES IDX 6 25 7 26 8 28 9 29
REMARK H PARENT 3 5 18 15 7 27 9 30
ROOT
ATOM      1  O   UNL     1      -9.247  62.749  31.832  1.00  0.00    -0.271 OA
ENDROOT
BRANCH   1   2
ATOM      2  N   UNL     1      -8.228  63.722  32.005  1.00  0.00    -0.231 N 
ATOM      3  O   UNL     1      -9.286  64.319  33.969  1.00  0.00    -0.267 OA
ATOM      4  C   UNL     1      -8.452  64.545  33.093  1.00  0.00     0.277 C 
ATOM      5  H   UNL     1      -7.905  64.138  31.137  1.00  0.00     0.199 HD
BRANCH   4   6
ATOM      6  C   UNL     1      -7.613  65.776  33.164  1.00  0.00     0.068 A 
ATOM      7  C   UNL     1      -6.281  65.663  33.611  1.00  0.00     0.019 A 
ATOM      8  C   UNL     1      -8.175  67.037  32.836  1.00  0.00     0.091 A 
ATOM      9  C   UNL     1      -5.484  66.798  33.722  1.00  0.00     0.043 A 
ATOM     10  C   UNL     1      -7.338  68.159  32.965  1.00  0.00     0.183 A 
ATOM     11  C   UNL     1      -6.020  68.037  33.399  1.00  0.00     0.161 A 
ATOM     12  F   UNL     1      -7.803  69.396  32.730  1.00  0.00    -0.201 F 
ATOM     13  F   UNL     1      -5.256  69.129  33.530  1.00  0.00    -0.204 F 
BRANCH   8  14
ATOM     14  N   UNL     1      -9.499  67.108  32.347  1.00  0.00    -0.350 N 
ATOM     15  H   UNL     1      -9.580  66.803  31.367  1.00  0.00     0.167 HD
BRANCH  14  16
ATOM     16  C   UNL     1     -10.747  67.383  32.932  1.00  0.00     0.075 A 
ATOM     17  C   UNL     1     -11.012  68.526  33.691  1.00  0.00     0.030 A 
ATOM     18  C   UNL     1     -11.793  66.457  32.772  1.00  0.00     0.147 A 
ATOM     19  C   UNL     1     -12.271  68.730  34.273  1.00  0.00     0.017 A 
ATOM     20  C   UNL     1     -13.050  66.646  33.340  1.00  0.00     0.056 A 
ATOM     21  C   UNL     1     -13.283  67.786  34.097  1.00  0.00     0.016 A 
ATOM     22  F   UNL     1     -11.577  65.346  32.050  1.00  0.00    -0.205 F 
ATOM     23  I   UNL     1     -15.144  68.093  34.966  1.00  0.00    -0.044 I 
ENDBRANCH  14  16
ENDBRANCH   8  14
ENDBRANCH   4   6
ENDBRANCH   1   2
BRANCH   1  24
ATOM     24  C   UNL     1      -8.714  61.445  32.122  1.00  0.00     0.227 C 
BRANCH  24  25
ATOM     25  C   UNL     1      -9.482  60.866  33.318  1.00  0.00     0.168 C 
BRANCH  25  26
ATOM     26  O   UNL     1     -10.680  61.625  33.549  1.00  0.00    -0.388 OA
ATOM     27  H   UNL     1     -10.821  61.646  34.525  1.00  0.00     0.211 HD
ENDBRANCH  25  26
BRANCH  25  28
ATOM     28  C   UNL     1      -8.653  60.937  34.600  1.00  0.00     0.190 C 
BRANCH  28  29
ATOM     29  O   UNL     1      -7.509  61.767  34.394  1.00  0.00    -0.394 OA
ATOM     30  H   UNL     1      -7.709  62.584  34.897  1.00  0.00     0.210 HD
ENDBRANCH  28  29
ENDBRANCH  25  28
ENDBRANCH  24  25
ENDBRANCH   1  24
TORSDOF 9
ENDMDL
MODEL 10
REMARK VINA RESULT:    -7.853      3.689      5.796
REMARK INTER + INTRA:         -12.612
REMARK INTER:                 -11.360
REMARK INTRA:                  -1.251
REMARK UNBOUND:                -1.085
REMARK SMILES O=C(NOC[C@H](O)CO)c1ccc(F)c(F)c1Nc1ccc(I)cc1F
REMARK SMILES IDX 4 1 3 2 1 3 2 4 10 6 11 7 17 8 12 9 15 10 13 11 16 12 14 13
REMARK SMILES IDX 18 14 19 16 20 17 25 18 21 19 24 20 22 21 26 22 23 23 5 24
REMARK SMILES IDX 6 25 7 26 8 28 9 29
REMARK H PARENT 3 5 18 15 7 27 9 30
ROOT
ATOM      1  O   UNL     1      -5.873  58.778  33.324  1.00  0.00    -0.271 OA
ENDROOT
BRANCH   1   2
ATOM      2  N   UNL     1      -4.663  58.049  33.188  1.00  0.00    -0.231 N 
ATOM      3  O   UNL     1      -4.734  57.720  35.472  1.00  0.00    -0.267 OA
ATOM      4  C   UNL     1      -4.126  57.670  34.405  1.00  0.00     0.277 C 
ATOM      5  H   UNL     1      -4.041  58.413  32.472  1.00  0.00     0.199 HD
BRANCH   4   6
ATOM      6  C   UNL     1      -2.717  57.182  34.372  1.00  0.00     0.068 A 
ATOM      7  C   UNL     1      -1.678  58.088  34.670  1.00  0.00     0.019 A 
ATOM      8  C   UNL     1      -2.439  55.842  33.997  1.00  0.00     0.091 A 
ATOM      9  C   UNL     1      -0.352  57.672  34.613  1.00  0.00     0.043 A 
ATOM     10  C   UNL     1      -1.087  55.463  33.948  1.00  0.00     0.183 A 
ATOM     11  C   UNL     1      -0.067  56.362  34.252  1.00  0.00     0.161 A 
ATOM     12  F   UNL     1      -0.730  54.232  33.548  1.00  0.00    -0.201 F 
ATOM     13  F   UNL     1       1.212  55.973  34.176  1.00  0.00    -0.204 F 
BRANCH   8  14
ATOM     14  N   UNL     1      -3.505  54.948  33.751  1.00  0.00    -0.350 N 
ATOM     15  H   UNL     1      -4.033  54.712  34.602  1.00  0.00     0.167 HD
BRANCH  14  16
ATOM     16  C   UNL     1      -4.083  54.405  32.590  1.00  0.00     0.075 A 
ATOM     17  C   UNL     1      -3.720  54.784  31.295  1.00  0.00     0.030 A 
ATOM     18  C   UNL     1      -5.099  53.442  32.721  1.00  0.00     0.147 A 
ATOM     19  C   UNL     1      -4.354  54.226  30.176  1.00  0.00     0.017 A 
ATOM     20  C   UNL     1      -5.737  52.876  31.620  1.00  0.00     0.056 A 
ATOM     21  C   UNL     1      -5.362  53.277  30.345  1.00  0.00     0.016 A 
ATOM     22  F   UNL     1      -5.477  53.053  33.949  1.00  0.00    -0.205 F 
ATOM     23  I   UNL     1      -6.300  52.459  28.683  1.00  0.00    -0.044 I 
ENDBRANCH  14  16
ENDBRANCH   8  14
ENDBRANCH   4   6
ENDBRANCH   1   2
BRANCH   1  24
ATOM     24  C   UNL     1      -6.937  58.060  32.678  1.00  0.00     0.227 C 
BRANCH  24  25
ATOM     25  C   UNL     1      -8.093  59.037  32.422  1.00  0.00     0.168 C 
BRANCH  25  26
ATOM     26  O   UNL     1      -7.743  59.947  31.366  1.00  0.00    -0.388 OA
ATOM     27  H   UNL     1      -8.571  60.132  30.864  1.00  0.00     0.211 HD
ENDBRANCH  25  26
BRANCH  25  28
ATOM     28  C   UNL     1      -8.394  59.881  33.660  1.00  0.00     0.190 C 
BRANCH  28  29
ATOM     29  O   UNL     1      -7.482  60.978  33.734  1.00  0.00    -0.394 OA
ATOM     30  H   UNL     1      -6.965  60.920  32.904  1.00  0.00     0.210 HD
ENDBRANCH  28  29
ENDBRANCH  25  28
ENDBRANCH  24  25
ENDBRANCH   1  24
TORSDOF 9
ENDMDL
MODEL 11
REMARK VINA RESULT:    -7.781      4.953      6.300
REMARK INTER + INTRA:         -12.506
REMARK INTER:                 -10.528
REMARK INTRA:                  -1.977
REMARK UNBOUND:                -1.085
REMARK SMILES O=C(NOC[C@H](O)CO)c1ccc(F)c(F)c1Nc1ccc(I)cc1F
REMARK SMILES IDX 4 1 3 2 1 3 2 4 10 6 11 7 17 8 12 9 15 10 13 11 16 12 14 13
REMARK SMILES IDX 18 14 19 16 20 17 25 18 21 19 24 20 22 21 26 22 23 23 5 24
REMARK SMILES IDX 6 25 7 26 8 28 9 29
REMARK H PARENT 3 5 18 15 7 27 9 30
ROOT
ATOM      1  O   UNL     1      -9.244  54.034  33.463  1.00  0.00    -0.271 OA
ENDROOT
BRANCH   1   2
ATOM      2  N   UNL     1      -8.124  53.392  32.872  1.00  0.00    -0.231 N 
ATOM      3  O   UNL     1      -8.010  55.180  31.415  1.00  0.00    -0.267 OA
ATOM      4  C   UNL     1      -7.669  54.045  31.740  1.00  0.00     0.277 C 
ATOM      5  H   UNL     1      -8.190  52.379  32.858  1.00  0.00     0.199 HD
BRANCH   4   6
ATOM      6  C   UNL     1      -6.711  53.282  30.889  1.00  0.00     0.068 A 
ATOM      7  C   UNL     1      -7.039  51.964  30.512  1.00  0.00     0.019 A 
ATOM      8  C   UNL     1      -5.473  53.868  30.517  1.00  0.00     0.091 A 
ATOM      9  C   UNL     1      -6.149  51.215  29.748  1.00  0.00     0.043 A 
ATOM     10  C   UNL     1      -4.601  53.077  29.748  1.00  0.00     0.183 A 
ATOM     11  C   UNL     1      -4.937  51.778  29.373  1.00  0.00     0.161 A 
ATOM     12  F   UNL     1      -3.386  53.529  29.400  1.00  0.00    -0.201 F 
ATOM     13  F   UNL     1      -4.074  51.045  28.658  1.00  0.00    -0.204 F 
BRANCH   8  14
ATOM     14  N   UNL     1      -5.196  55.207  30.871  1.00  0.00    -0.350 N 
ATOM     15  H   UNL     1      -5.838  55.879  30.428  1.00  0.00     0.167 HD
BRANCH  14  16
ATOM     16  C   UNL     1      -4.323  55.819  31.788  1.00  0.00     0.075 A 
ATOM     17  C   UNL     1      -3.064  55.310  32.117  1.00  0.00     0.030 A 
ATOM     18  C   UNL     1      -4.732  57.000  32.433  1.00  0.00     0.147 A 
ATOM     19  C   UNL     1      -2.251  55.952  33.061  1.00  0.00     0.017 A 
ATOM     20  C   UNL     1      -3.934  57.652  33.370  1.00  0.00     0.056 A 
ATOM     21  C   UNL     1      -2.691  57.119  33.685  1.00  0.00     0.016 A 
ATOM     22  F   UNL     1      -5.935  57.521  32.144  1.00  0.00    -0.205 F 
ATOM     23  I   UNL     1      -1.483  58.062  35.085  1.00  0.00    -0.044 I 
ENDBRANCH  14  16
ENDBRANCH   8  14
ENDBRANCH   4   6
ENDBRANCH   1   2
BRANCH   1  24
ATOM     24  C   UNL     1      -9.293  53.712  34.863  1.00  0.00     0.227 C 
BRANCH  24  25
ATOM     25  C   UNL     1      -9.352  55.024  35.657  1.00  0.00     0.168 C 
BRANCH  25  26
ATOM     26  O   UNL     1     -10.656  55.188  36.241  1.00  0.00    -0.388 OA
ATOM     27  H   UNL     1     -10.551  55.061  37.213  1.00  0.00     0.211 HD
ENDBRANCH  25  26
BRANCH  25  28
ATOM     28  C   UNL     1      -9.110  56.234  34.755  1.00  0.00     0.190 C 
BRANCH  28  29
ATOM     29  O   UNL     1      -7.753  56.245  34.310  1.00  0.00    -0.394 OA
ATOM     30  H   UNL     1      -7.242  56.526  35.097  1.00  0.00     0.210 HD
ENDBRANCH  28  29
ENDBRANCH  25  28
ENDBRANCH  24  25
ENDBRANCH   1  24
TORSDOF 9
ENDMDL
MODEL 12
REMARK VINA RESULT:    -7.769      4.312      6.497
REMARK INTER + INTRA:         -12.488
REMARK INTER:                 -10.847
REMARK INTRA:                  -1.641
REMARK UNBOUND:                -1.085
REMARK SMILES O=C(NOC[C@H](O)CO)c1ccc(F)c(F)c1Nc1ccc(I)cc1F
REMARK SMILES IDX 4 1 3 2 1 3 2 4 10 6 11 7 17 8 12 9 15 10 13 11 16 12 14 13
REMARK SMILES IDX 18 14 19 16 20 17 25 18 21 19 24 20 22 21 26 22 23 23 5 24
REMARK SMILES IDX 6 25 7 26 8 28 9 29
REMARK H PARENT 3 5 18 15 7 27 9 30
ROOT
ATOM      1  O   UNL     1      -7.631  57.425  33.338  1.00  0.00    -0.271 OA
ENDROOT
BRANCH   1   2
ATOM      2  N   UNL     1      -6.333  57.365  33.909  1.00  0.00    -0.231 N 
ATOM      3  O   UNL     1      -5.509  57.886  31.816  1.00  0.00    -0.267 OA
ATOM      4  C   UNL     1      -5.327  57.501  32.969  1.00  0.00     0.277 C 
ATOM      5  H   UNL     1      -6.233  56.659  34.631  1.00  0.00     0.199 HD
BRANCH   4   6
ATOM      6  C   UNL     1      -3.954  57.141  33.426  1.00  0.00     0.068 A 
ATOM      7  C   UNL     1      -3.319  57.963  34.380  1.00  0.00     0.019 A 
ATOM      8  C   UNL     1      -3.291  56.019  32.864  1.00  0.00     0.091 A 
ATOM      9  C   UNL     1      -2.024  57.674  34.799  1.00  0.00     0.043 A 
ATOM     10  C   UNL     1      -1.984  55.764  33.312  1.00  0.00     0.183 A 
ATOM     11  C   UNL     1      -1.367  56.576  34.260  1.00  0.00     0.161 A 
ATOM     12  F   UNL     1      -1.262  54.758  32.793  1.00  0.00    -0.201 F 
ATOM     13  F   UNL     1      -0.112  56.315  34.650  1.00  0.00    -0.204 F 
BRANCH   8  14
ATOM     14  N   UNL     1      -3.974  55.190  31.946  1.00  0.00    -0.350 N 
ATOM     15  H   UNL     1      -3.459  55.061  31.064  1.00  0.00     0.167 HD
BRANCH  14  16
ATOM     16  C   UNL     1      -5.137  54.403  32.012  1.00  0.00     0.075 A 
ATOM     17  C   UNL     1      -6.174  54.473  31.079  1.00  0.00     0.030 A 
ATOM     18  C   UNL     1      -5.290  53.504  33.083  1.00  0.00     0.147 A 
ATOM     19  C   UNL     1      -7.323  53.682  31.215  1.00  0.00     0.017 A 
ATOM     20  C   UNL     1      -6.423  52.708  33.231  1.00  0.00     0.056 A 
ATOM     21  C   UNL     1      -7.442  52.804  32.293  1.00  0.00     0.016 A 
ATOM     22  F   UNL     1      -4.316  53.408  34.001  1.00  0.00    -0.205 F 
ATOM     23  I   UNL     1      -9.149  51.638  32.492  1.00  0.00    -0.044 I 
ENDBRANCH  14  16
ENDBRANCH   8  14
ENDBRANCH   4   6
ENDBRANCH   1   2
BRANCH   1  24
ATOM     24  C   UNL     1      -8.341  58.549  33.886  1.00  0.00     0.227 C 
BRANCH  24  25
ATOM     25  C   UNL     1      -9.158  59.198  32.761  1.00  0.00     0.168 C 
BRANCH  25  26
ATOM     26  O   UNL     1      -9.416  58.238  31.723  1.00  0.00    -0.388 OA
ATOM     27  H   UNL     1     -10.347  58.379  31.430  1.00  0.00     0.211 HD
ENDBRANCH  25  26
BRANCH  25  28
ATOM     28  C   UNL     1      -8.400  60.359  32.119  1.00  0.00     0.190 C 
BRANCH  28  29
ATOM     29  O   UNL     1      -7.335  59.857  31.310  1.00  0.00    -0.394 OA
ATOM     30  H   UNL     1      -6.533  59.990  31.857  1.00  0.00     0.210 HD
ENDBRANCH  28  29
ENDBRANCH  25  28
ENDBRANCH  24  25
ENDBRANCH   1  24
TORSDOF 9
ENDMDL
MODEL 13
REMARK VINA RESULT:    -7.721      4.224      5.860
REMARK INTER + INTRA:         -12.417
REMARK INTER:                 -10.538
REMARK INTRA:                  -1.879
REMARK UNBOUND:                -1.085
REMARK SMILES O=C(NOC[C@H](O)CO)c1ccc(F)c(F)c1Nc1ccc(I)cc1F
REMARK SMILES IDX 4 1 3 2 1 3 2 4 10 6 11 7 17 8 12 9 15 10 13 11 16 12 14 13
REMARK SMILES IDX 18 14 19 16 20 17 25 18 21 19 24 20 22 21 26 22 23 23 5 24
REMARK SMILES IDX 6 25 7 26 8 28 9 29
REMARK H PARENT 3 5 18 15 7 27 9 30
ROOT
ATOM      1  O   UNL     1      -9.264  57.192  33.305  1.00  0.00    -0.271 OA
ENDROOT
BRANCH   1   2
ATOM      2  N   UNL     1      -8.699  56.629  32.131  1.00  0.00    -0.231 N 
ATOM      3  O   UNL     1      -9.042  54.558  33.093  1.00  0.00    -0.267 OA
ATOM      4  C   UNL     1      -8.533  55.259  32.220  1.00  0.00     0.277 C 
ATOM      5  H   UNL     1      -7.953  57.185  31.725  1.00  0.00     0.199 HD
BRANCH   4   6
ATOM      6  C   UNL     1      -7.671  54.637  31.174  1.00  0.00     0.068 A 
ATOM      7  C   UNL     1      -8.238  54.331  29.920  1.00  0.00     0.019 A 
ATOM      8  C   UNL     1      -6.320  54.317  31.468  1.00  0.00     0.091 A 
ATOM      9  C   UNL     1      -7.469  53.717  28.937  1.00  0.00     0.043 A 
ATOM     10  C   UNL     1      -5.578  53.695  30.449  1.00  0.00     0.183 A 
ATOM     11  C   UNL     1      -6.144  53.404  29.210  1.00  0.00     0.161 A 
ATOM     12  F   UNL     1      -4.310  53.306  30.659  1.00  0.00    -0.201 F 
ATOM     13  F   UNL     1      -5.414  52.792  28.269  1.00  0.00    -0.204 F 
BRANCH   8  14
ATOM     14  N   UNL     1      -5.770  54.680  32.718  1.00  0.00    -0.350 N 
ATOM     15  H   UNL     1      -6.289  54.285  33.514  1.00  0.00     0.167 HD
BRANCH  14  16
ATOM     16  C   UNL     1      -4.603  55.356  33.118  1.00  0.00     0.075 A 
ATOM     17  C   UNL     1      -3.525  54.731  33.749  1.00  0.00     0.030 A 
ATOM     18  C   UNL     1      -4.509  56.741  32.895  1.00  0.00     0.147 A 
ATOM     19  C   UNL     1      -2.400  55.466  34.150  1.00  0.00     0.017 A 
ATOM     20  C   UNL     1      -3.397  57.484  33.283  1.00  0.00     0.056 A 
ATOM     21  C   UNL     1      -2.344  56.840  33.917  1.00  0.00     0.016 A 
ATOM     22  F   UNL     1      -5.526  57.377  32.291  1.00  0.00    -0.205 F 
ATOM     23  I   UNL     1      -0.676  57.923  34.517  1.00  0.00    -0.044 I 
ENDBRANCH  14  16
ENDBRANCH   8  14
ENDBRANCH   4   6
ENDBRANCH   1   2
BRANCH   1  24
ATOM     24  C   UNL     1      -8.482  58.327  33.714  1.00  0.00     0.227 C 
BRANCH  24  25
ATOM     25  C   UNL     1      -9.138  59.593  33.148  1.00  0.00     0.168 C 
BRANCH  25  26
ATOM     26  O   UNL     1     -10.263  59.241  32.326  1.00  0.00    -0.388 OA
ATOM     27  H   UNL     1     -10.427  58.278  32.466  1.00  0.00     0.211 HD
ENDBRANCH  25  26
BRANCH  25  28
ATOM     28  C   UNL     1      -8.167  60.378  32.265  1.00  0.00     0.190 C 
BRANCH  28  29
ATOM     29  O   UNL     1      -7.612  59.518  31.269  1.00  0.00    -0.394 OA
ATOM     30  H   UNL     1      -7.575  58.639  31.701  1.00  0.00     0.210 HD
ENDBRANCH  28  29
ENDBRANCH  25  28
ENDBRANCH  24  25
ENDBRANCH   1  24
TORSDOF 9
ENDMDL
MODEL 14
REMARK VINA RESULT:    -7.696      3.747      5.523
REMARK INTER + INTRA:         -12.381
REMARK INTER:                 -10.318
REMARK INTRA:                  -2.063
REMARK UNBOUND:                -1.085
REMARK SMILES O=C(NOC[C@H](O)CO)c1ccc(F)c(F)c1Nc1ccc(I)cc1F
REMARK SMILES IDX 4 1 3 2 1 3 2 4 10 6 11 7 17 8 12 9 15 10 13 11 16 12 14 13
REMARK SMILES IDX 18 14 19 16 20 17 25 18 21 19 24 20 22 21 26 22 23 23 5 24
REMARK SMILES IDX 6 25 7 26 8 28 9 29
REMARK H PARENT 3 5 18 15 7 27 9 30
ROOT
ATOM      1  O   UNL     1      -9.412  57.597  33.244  1.00  0.00    -0.271 OA
ENDROOT
BRANCH   1   2
ATOM      2  N   UNL     1      -8.835  56.879  32.164  1.00  0.00    -0.231 N 
ATOM      3  O   UNL     1      -8.512  55.134  33.641  1.00  0.00    -0.267 OA
ATOM      4  C   UNL     1      -8.299  55.664  32.553  1.00  0.00     0.277 C 
ATOM      5  H   UNL     1      -8.309  57.459  31.517  1.00  0.00     0.199 HD
BRANCH   4   6
ATOM      6  C   UNL     1      -7.408  54.996  31.561  1.00  0.00     0.068 A 
ATOM      7  C   UNL     1      -7.977  54.477  30.380  1.00  0.00     0.019 A 
ATOM      8  C   UNL     1      -6.025  54.846  31.839  1.00  0.00     0.091 A 
ATOM      9  C   UNL     1      -7.178  53.817  29.452  1.00  0.00     0.043 A 
ATOM     10  C   UNL     1      -5.253  54.170  30.878  1.00  0.00     0.183 A 
ATOM     11  C   UNL     1      -5.822  53.668  29.710  1.00  0.00     0.161 A 
ATOM     12  F   UNL     1      -3.948  53.933  31.085  1.00  0.00    -0.201 F 
ATOM     13  F   UNL     1      -5.061  53.011  28.825  1.00  0.00    -0.204 F 
BRANCH   8  14
ATOM     14  N   UNL     1      -5.479  55.419  33.010  1.00  0.00    -0.350 N 
ATOM     15  H   UNL     1      -6.118  55.368  33.815  1.00  0.00     0.167 HD
BRANCH  14  16
ATOM     16  C   UNL     1      -4.216  55.932  33.354  1.00  0.00     0.075 A 
ATOM     17  C   UNL     1      -3.837  57.260  33.147  1.00  0.00     0.030 A 
ATOM     18  C   UNL     1      -3.263  55.068  33.921  1.00  0.00     0.147 A 
ATOM     19  C   UNL     1      -2.551  57.705  33.486  1.00  0.00     0.017 A 
ATOM     20  C   UNL     1      -1.983  55.494  34.268  1.00  0.00     0.056 A 
ATOM     21  C   UNL     1      -1.630  56.818  34.043  1.00  0.00     0.016 A 
ATOM     22  F   UNL     1      -3.589  53.783  34.135  1.00  0.00    -0.205 F 
ATOM     23  I   UNL     1       0.274  57.482  34.539  1.00  0.00    -0.044 I 
ENDBRANCH  14  16
ENDBRANCH   8  14
ENDBRANCH   4   6
ENDBRANCH   1   2
BRANCH   1  24
ATOM     24  C   UNL     1      -9.157  59.001  33.072  1.00  0.00     0.227 C 
BRANCH  24  25
ATOM     25  C   UNL     1      -8.350  59.496  34.279  1.00  0.00     0.168 C 
BRANCH  25  26
ATOM     26  O   UNL     1      -7.071  59.990  33.848  1.00  0.00    -0.388 OA
ATOM     27  H   UNL     1      -6.401  59.318  34.116  1.00  0.00     0.211 HD
ENDBRANCH  25  26
BRANCH  25  28
ATOM     28  C   UNL     1      -8.081  58.365  35.272  1.00  0.00     0.190 C 
BRANCH  28  29
ATOM     29  O   UNL     1      -7.012  57.545  34.798  1.00  0.00    -0.394 OA
ATOM     30  H   UNL     1      -6.901  57.810  33.861  1.00  0.00     0.210 HD
ENDBRANCH  28  29
ENDBRANCH  25  28
ENDBRANCH  24  25
ENDBRANCH   1  24
TORSDOF 9
ENDMDL
MODEL 15
REMARK VINA RESULT:    -7.681      4.939      7.236
REMARK INTER + INTRA:         -12.359
REMARK INTER:                 -10.522
REMARK INTRA:                  -1.837
REMARK UNBOUND:                -1.085
REMARK SMILES O=C(NOC[C@H](O)CO)c1ccc(F)c(F)c1Nc1ccc(I)cc1F
REMARK SMILES IDX 4 1 3 2 1 3 2 4 10 6 11 7 17 8 12 9 15 10 13 11 16 12 14 13
REMARK SMILES IDX 18 14 19 16 20 17 25 18 21 19 24 20 22 21 26 22 23 23 5 24
REMARK SMILES IDX 6 25 7 26 8 28 9 29
REMARK H PARENT 3 5 18 15 7 27 9 30
ROOT
ATOM      1  O   UNL     1      -8.129  58.485  34.373  1.00  0.00    -0.271 OA
ENDROOT
BRANCH   1   2
ATOM      2  N   UNL     1      -6.806  57.981  34.489  1.00  0.00    -0.231 N 
ATOM      3  O   UNL     1      -6.462  58.702  32.323  1.00  0.00    -0.267 OA
ATOM      4  C   UNL     1      -6.100  58.052  33.302  1.00  0.00     0.277 C 
ATOM      5  H   UNL     1      -6.734  57.138  35.050  1.00  0.00     0.199 HD
BRANCH   4   6
ATOM      6  C   UNL     1      -4.832  57.270  33.250  1.00  0.00     0.068 A 
ATOM      7  C   UNL     1      -3.849  57.505  34.233  1.00  0.00     0.019 A 
ATOM      8  C   UNL     1      -4.610  56.348  32.194  1.00  0.00     0.091 A 
ATOM      9  C   UNL     1      -2.640  56.817  34.191  1.00  0.00     0.043 A 
ATOM     10  C   UNL     1      -3.375  55.677  32.185  1.00  0.00     0.183 A 
ATOM     11  C   UNL     1      -2.413  55.909  33.165  1.00  0.00     0.161 A 
ATOM     12  F   UNL     1      -3.058  54.830  31.192  1.00  0.00    -0.201 F 
ATOM     13  F   UNL     1      -1.239  55.267  33.115  1.00  0.00    -0.204 F 
BRANCH   8  14
ATOM     14  N   UNL     1      -5.634  56.103  31.252  1.00  0.00    -0.350 N 
ATOM     15  H   UNL     1      -5.713  56.846  30.544  1.00  0.00     0.167 HD
BRANCH  14  16
ATOM     16  C   UNL     1      -6.486  55.016  30.990  1.00  0.00     0.075 A 
ATOM     17  C   UNL     1      -7.653  54.754  31.713  1.00  0.00     0.030 A 
ATOM     18  C   UNL     1      -6.150  54.120  29.959  1.00  0.00     0.147 A 
ATOM     19  C   UNL     1      -8.446  53.636  31.422  1.00  0.00     0.017 A 
ATOM     20  C   UNL     1      -6.930  53.007  29.655  1.00  0.00     0.056 A 
ATOM     21  C   UNL     1      -8.079  52.766  30.396  1.00  0.00     0.016 A 
ATOM     22  F   UNL     1      -5.036  54.337  29.242  1.00  0.00    -0.205 F 
ATOM     23  I   UNL     1      -9.257  51.109  29.973  1.00  0.00    -0.044 I 
ENDBRANCH  14  16
ENDBRANCH   8  14
ENDBRANCH   4   6
ENDBRANCH   1   2
BRANCH   1  24
ATOM     24  C   UNL     1      -9.027  57.401  34.082  1.00  0.00     0.227 C 
BRANCH  24  25
ATOM     25  C   UNL     1     -10.094  57.909  33.104  1.00  0.00     0.168 C 
BRANCH  25  26
ATOM     26  O   UNL     1      -9.504  58.816  32.158  1.00  0.00    -0.388 OA
ATOM     27  H   UNL     1      -9.437  58.331  31.302  1.00  0.00     0.211 HD
ENDBRANCH  25  26
BRANCH  25  28
ATOM     28  C   UNL     1     -11.198  58.677  33.831  1.00  0.00     0.190 C 
BRANCH  28  29
ATOM     29  O   UNL     1     -11.228  58.298  35.208  1.00  0.00    -0.394 OA
ATOM     30  H   UNL     1     -10.319  58.477  35.528  1.00  0.00     0.210 HD
ENDBRANCH  28  29
ENDBRANCH  25  28
ENDBRANCH  24  25
ENDBRANCH   1  24
TORSDOF 9
ENDMDL
MODEL 16
REMARK VINA RESULT:    -7.681      4.933      7.633
REMARK INTER + INTRA:         -12.359
REMARK INTER:                 -10.827
REMARK INTRA:                  -1.532
REMARK UNBOUND:                -1.085
REMARK SMILES O=C(NOC[C@H](O)CO)c1ccc(F)c(F)c1Nc1ccc(I)cc1F
REMARK SMILES IDX 4 1 3 2 1 3 2 4 10 6 11 7 17 8 12 9 15 10 13 11 16 12 14 13
REMARK SMILES IDX 18 14 19 16 20 17 25 18 21 19 24 20 22 21 26 22 23 23 5 24
REMARK SMILES IDX 6 25 7 26 8 28 9 29
REMARK H PARENT 3 5 18 15 7 27 9 30
ROOT
ATOM      1  O   UNL     1      -1.881  56.409  33.048  1.00  0.00    -0.271 OA
ENDROOT
BRANCH   1   2
ATOM      2  N   UNL     1      -2.877  56.178  32.063  1.00  0.00    -0.231 N 
ATOM      3  O   UNL     1      -3.893  54.766  33.582  1.00  0.00    -0.267 OA
ATOM      4  C   UNL     1      -3.787  55.206  32.439  1.00  0.00     0.277 C 
ATOM      5  H   UNL     1      -2.523  56.174  31.112  1.00  0.00     0.199 HD
BRANCH   4   6
ATOM      6  C   UNL     1      -4.667  54.683  31.355  1.00  0.00     0.068 A 
ATOM      7  C   UNL     1      -4.085  53.947  30.303  1.00  0.00     0.019 A 
ATOM      8  C   UNL     1      -6.057  54.973  31.369  1.00  0.00     0.091 A 
ATOM      9  C   UNL     1      -4.875  53.477  29.259  1.00  0.00     0.043 A 
ATOM     10  C   UNL     1      -6.819  54.483  30.295  1.00  0.00     0.183 A 
ATOM     11  C   UNL     1      -6.236  53.750  29.263  1.00  0.00     0.161 A 
ATOM     12  F   UNL     1      -8.129  54.758  30.197  1.00  0.00    -0.201 F 
ATOM     13  F   UNL     1      -6.989  53.315  28.244  1.00  0.00    -0.204 F 
BRANCH   8  14
ATOM     14  N   UNL     1      -6.615  55.672  32.462  1.00  0.00    -0.350 N 
ATOM     15  H   UNL     1      -6.356  55.266  33.371  1.00  0.00     0.167 HD
BRANCH  14  16
ATOM     16  C   UNL     1      -7.342  56.869  32.594  1.00  0.00     0.075 A 
ATOM     17  C   UNL     1      -8.738  56.929  32.610  1.00  0.00     0.030 A 
ATOM     18  C   UNL     1      -6.641  58.084  32.694  1.00  0.00     0.147 A 
ATOM     19  C   UNL     1      -9.406  58.157  32.715  1.00  0.00     0.017 A 
ATOM     20  C   UNL     1      -7.289  59.311  32.803  1.00  0.00     0.056 A 
ATOM     21  C   UNL     1      -8.677  59.343  32.808  1.00  0.00     0.016 A 
ATOM     22  F   UNL     1      -5.299  58.067  32.681  1.00  0.00    -0.205 F 
ATOM     23  I   UNL     1      -9.673  61.159  32.959  1.00  0.00    -0.044 I 
ENDBRANCH  14  16
ENDBRANCH   8  14
ENDBRANCH   4   6
ENDBRANCH   1   2
BRANCH   1  24
ATOM     24  C   UNL     1      -2.069  57.715  33.619  1.00  0.00     0.227 C 
BRANCH  24  25
ATOM     25  C   UNL     1      -0.712  58.219  34.127  1.00  0.00     0.168 C 
BRANCH  25  26
ATOM     26  O   UNL     1       0.006  58.862  33.061  1.00  0.00    -0.388 OA
ATOM     27  H   UNL     1       0.823  58.333  32.908  1.00  0.00     0.211 HD
ENDBRANCH  25  26
BRANCH  25  28
ATOM     28  C   UNL     1       0.162  57.065  34.622  1.00  0.00     0.190 C 
BRANCH  28  29
ATOM     29  O   UNL     1       0.791  56.421  33.514  1.00  0.00    -0.394 OA
ATOM     30  H   UNL     1       0.689  57.057  32.774  1.00  0.00     0.210 HD
ENDBRANCH  28  29
ENDBRANCH  25  28
ENDBRANCH  24  25
ENDBRANCH   1  24
TORSDOF 9
ENDMDL
MODEL 17
REMARK VINA RESULT:    -7.620      5.017      6.681
REMARK INTER + INTRA:         -12.269
REMARK INTER:                 -10.363
REMARK INTRA:                  -1.907
REMARK UNBOUND:                -1.085
REMARK SMILES O=C(NOC[C@H](O)CO)c1ccc(F)c(F)c1Nc1ccc(I)cc1F
REMARK SMILES IDX 4 1 3 2 1 3 2 4 10 6 11 7 17 8 12 9 15 10 13 11 16 12 14 13
REMARK SMILES IDX 18 14 19 16 20 17 25 18 21 19 24 20 22 21 26 22 23 23 5 24
REMARK SMILES IDX 6 25 7 26 8 28 9 29
REMARK H PARENT 3 5 18 15 7 27 9 30
ROOT
ATOM      1  O   UNL     1      -9.870  56.144  33.939  1.00  0.00    -0.271 OA
ENDROOT
BRANCH   1   2
ATOM      2  N   UNL     1      -9.047  55.042  33.587  1.00  0.00    -0.231 N 
ATOM      3  O   UNL     1      -9.310  55.692  31.387  1.00  0.00    -0.267 OA
ATOM      4  C   UNL     1      -8.950  54.862  32.219  1.00  0.00     0.277 C 
ATOM      5  H   UNL     1      -9.175  54.227  34.178  1.00  0.00     0.199 HD
BRANCH   4   6
ATOM      6  C   UNL     1      -8.373  53.562  31.771  1.00  0.00     0.068 A 
ATOM      7  C   UNL     1      -9.131  52.386  31.949  1.00  0.00     0.019 A 
ATOM      8  C   UNL     1      -7.063  53.517  31.227  1.00  0.00     0.091 A 
ATOM      9  C   UNL     1      -8.605  51.153  31.574  1.00  0.00     0.043 A 
ATOM     10  C   UNL     1      -6.568  52.253  30.865  1.00  0.00     0.183 A 
ATOM     11  C   UNL     1      -7.327  51.097  31.036  1.00  0.00     0.161 A 
ATOM     12  F   UNL     1      -5.318  52.111  30.395  1.00  0.00    -0.201 F 
ATOM     13  F   UNL     1      -6.817  49.906  30.699  1.00  0.00    -0.204 F 
BRANCH   8  14
ATOM     14  N   UNL     1      -6.349  54.719  31.020  1.00  0.00    -0.350 N 
ATOM     15  H   UNL     1      -6.766  55.310  30.287  1.00  0.00     0.167 HD
BRANCH  14  16
ATOM     16  C   UNL     1      -5.273  55.346  31.672  1.00  0.00     0.075 A 
ATOM     17  C   UNL     1      -4.016  54.758  31.831  1.00  0.00     0.030 A 
ATOM     18  C   UNL     1      -5.462  56.628  32.218  1.00  0.00     0.147 A 
ATOM     19  C   UNL     1      -2.990  55.424  32.517  1.00  0.00     0.017 A 
ATOM     20  C   UNL     1      -4.452  57.304  32.899  1.00  0.00     0.056 A 
ATOM     21  C   UNL     1      -3.215  56.693  33.050  1.00  0.00     0.016 A 
ATOM     22  F   UNL     1      -6.657  57.226  32.087  1.00  0.00    -0.205 F 
ATOM     23  I   UNL     1      -1.693  57.671  34.069  1.00  0.00    -0.044 I 
ENDBRANCH  14  16
ENDBRANCH   8  14
ENDBRANCH   4   6
ENDBRANCH   1   2
BRANCH   1  24
ATOM     24  C   UNL     1      -9.040  57.255  34.321  1.00  0.00     0.227 C 
BRANCH  24  25
ATOM     25  C   UNL     1      -9.937  58.487  34.500  1.00  0.00     0.168 C 
BRANCH  25  26
ATOM     26  O   UNL     1     -11.187  58.104  35.095  1.00  0.00    -0.388 OA
ATOM     27  H   UNL     1     -11.796  58.874  35.000  1.00  0.00     0.211 HD
ENDBRANCH  25  26
BRANCH  25  28
ATOM     28  C   UNL     1     -10.262  59.140  33.156  1.00  0.00     0.190 C 
BRANCH  28  29
ATOM     29  O   UNL     1      -9.622  58.422  32.099  1.00  0.00    -0.394 OA
ATOM     30  H   UNL     1      -9.893  58.897  31.286  1.00  0.00     0.210 HD
ENDBRANCH  28  29
ENDBRANCH  25  28
ENDBRANCH  24  25
ENDBRANCH   1  24
TORSDOF 9
ENDMDL
MODEL 18
REMARK VINA RESULT:    -7.594      5.030      7.008
REMARK INTER + INTRA:         -12.231
REMARK INTER:                 -10.210
REMARK INTRA:                  -2.021
REMARK UNBOUND:                -1.085
REMARK SMILES O=C(NOC[C@H](O)CO)c1ccc(F)c(F)c1Nc1ccc(I)cc1F
REMARK SMILES IDX 4 1 3 2 1 3 2 4 10 6 11 7 17 8 12 9 15 10 13 11 16 12 14 13
REMARK SMILES IDX 18 14 19 16 20 17 25 18 21 19 24 20 22 21 26 22 23 23 5 24
REMARK SMILES IDX 6 25 7 26 8 28 9 29
REMARK H PARENT 3 5 18 15 7 27 9 30
ROOT
ATOM      1  O   UNL     1      -8.347  57.981  34.480  1.00  0.00    -0.271 OA
ENDROOT
BRANCH   1   2
ATOM      2  N   UNL     1      -8.433  56.564  34.467  1.00  0.00    -0.231 N 
ATOM      3  O   UNL     1      -7.847  56.660  32.236  1.00  0.00    -0.267 OA
ATOM      4  C   UNL     1      -8.271  56.029  33.202  1.00  0.00     0.277 C 
ATOM      5  H   UNL     1      -9.164  56.191  35.065  1.00  0.00     0.199 HD
BRANCH   4   6
ATOM      6  C   UNL     1      -8.654  54.596  33.046  1.00  0.00     0.068 A 
ATOM      7  C   UNL     1      -9.883  54.160  33.583  1.00  0.00     0.019 A 
ATOM      8  C   UNL     1      -7.765  53.690  32.412  1.00  0.00     0.091 A 
ATOM      9  C   UNL     1     -10.251  52.821  33.485  1.00  0.00     0.043 A 
ATOM     10  C   UNL     1      -8.172  52.347  32.337  1.00  0.00     0.183 A 
ATOM     11  C   UNL     1      -9.392  51.926  32.863  1.00  0.00     0.161 A 
ATOM     12  F   UNL     1      -7.370  51.412  31.805  1.00  0.00    -0.201 F 
ATOM     13  F   UNL     1      -9.740  50.635  32.791  1.00  0.00    -0.204 F 
BRANCH   8  14
ATOM     14  N   UNL     1      -6.563  54.170  31.843  1.00  0.00    -0.350 N 
ATOM     15  H   UNL     1      -6.687  54.519  30.883  1.00  0.00     0.167 HD
BRANCH  14  16
ATOM     16  C   UNL     1      -5.265  54.393  32.336  1.00  0.00     0.075 A 
ATOM     17  C   UNL     1      -4.794  53.868  33.542  1.00  0.00     0.030 A 
ATOM     18  C   UNL     1      -4.386  55.203  31.595  1.00  0.00     0.147 A 
ATOM     19  C   UNL     1      -3.497  54.151  33.993  1.00  0.00     0.017 A 
ATOM     20  C   UNL     1      -3.094  55.490  32.027  1.00  0.00     0.056 A 
ATOM     21  C   UNL     1      -2.654  54.963  33.234  1.00  0.00     0.016 A 
ATOM     22  F   UNL     1      -4.803  55.726  30.431  1.00  0.00    -0.205 F 
ATOM     23  I   UNL     1      -0.736  55.380  33.911  1.00  0.00    -0.044 I 
ENDBRANCH  14  16
ENDBRANCH   8  14
ENDBRANCH   4   6
ENDBRANCH   1   2
BRANCH   1  24
ATOM     24  C   UNL     1      -9.655  58.536  34.702  1.00  0.00     0.227 C 
BRANCH  24  25
ATOM     25  C   UNL     1     -10.099  59.251  33.420  1.00  0.00     0.168 C 
BRANCH  25  26
ATOM     26  O   UNL     1     -10.506  58.288  32.434  1.00  0.00    -0.388 OA
ATOM     27  H   UNL     1     -10.693  58.789  31.606  1.00  0.00     0.211 HD
ENDBRANCH  25  26
BRANCH  25  28
ATOM     28  C   UNL     1      -8.956  60.061  32.808  1.00  0.00     0.190 C 
BRANCH  28  29
ATOM     29  O   UNL     1      -8.454  59.395  31.649  1.00  0.00    -0.394 OA
ATOM     30  H   UNL     1      -8.935  58.542  31.632  1.00  0.00     0.210 HD
ENDBRANCH  28  29
ENDBRANCH  25  28
ENDBRANCH  24  25
ENDBRANCH   1  24
TORSDOF 9
ENDMDL
MODEL 19
REMARK VINA RESULT:    -7.519      4.752      6.978
REMARK INTER + INTRA:         -12.121
REMARK INTER:                 -10.617
REMARK INTRA:                  -1.503
REMARK UNBOUND:                -1.085
REMARK SMILES O=C(NOC[C@H](O)CO)c1ccc(F)c(F)c1Nc1ccc(I)cc1F
REMARK SMILES IDX 4 1 3 2 1 3 2 4 10 6 11 7 17 8 12 9 15 10 13 11 16 12 14 13
REMARK SMILES IDX 18 14 19 16 20 17 25 18 21 19 24 20 22 21 26 22 23 23 5 24
REMARK SMILES IDX 6 25 7 26 8 28 9 29
REMARK H PARENT 3 5 18 15 7 27 9 30
ROOT
ATOM      1  O   UNL     1      -9.304  57.703  35.458  1.00  0.00    -0.271 OA
ENDROOT
BRANCH   1   2
ATOM      2  N   UNL     1      -8.982  56.367  35.104  1.00  0.00    -0.231 N 
ATOM      3  O   UNL     1      -9.554  56.921  32.937  1.00  0.00    -0.267 OA
ATOM      4  C   UNL     1      -9.282  56.075  33.786  1.00  0.00     0.277 C 
ATOM      5  H   UNL     1      -9.211  55.684  35.819  1.00  0.00     0.199 HD
BRANCH   4   6
ATOM      6  C   UNL     1      -9.271  54.629  33.419  1.00  0.00     0.068 A 
ATOM      7  C   UNL     1     -10.250  53.781  33.974  1.00  0.00     0.019 A 
ATOM      8  C   UNL     1      -8.256  54.122  32.567  1.00  0.00     0.091 A 
ATOM      9  C   UNL     1     -10.244  52.421  33.679  1.00  0.00     0.043 A 
ATOM     10  C   UNL     1      -8.282  52.744  32.297  1.00  0.00     0.183 A 
ATOM     11  C   UNL     1      -9.259  51.913  32.843  1.00  0.00     0.161 A 
ATOM     12  F   UNL     1      -7.328  52.169  31.547  1.00  0.00    -0.201 F 
ATOM     13  F   UNL     1      -9.243  50.600  32.581  1.00  0.00    -0.204 F 
BRANCH   8  14
ATOM     14  N   UNL     1      -7.318  55.008  31.990  1.00  0.00    -0.350 N 
ATOM     15  H   UNL     1      -7.614  55.361  31.070  1.00  0.00     0.167 HD
BRANCH  14  16
ATOM     16  C   UNL     1      -6.132  55.613  32.443  1.00  0.00     0.075 A 
ATOM     17  C   UNL     1      -6.027  56.969  32.762  1.00  0.00     0.030 A 
ATOM     18  C   UNL     1      -4.972  54.827  32.568  1.00  0.00     0.147 A 
ATOM     19  C   UNL     1      -4.807  57.519  33.181  1.00  0.00     0.017 A 
ATOM     20  C   UNL     1      -3.755  55.357  32.987  1.00  0.00     0.056 A 
ATOM     21  C   UNL     1      -3.676  56.710  33.289  1.00  0.00     0.016 A 
ATOM     22  F   UNL     1      -5.033  53.519  32.271  1.00  0.00    -0.205 F 
ATOM     23  I   UNL     1      -1.873  57.532  33.907  1.00  0.00    -0.044 I 
ENDBRANCH  14  16
ENDBRANCH   8  14
ENDBRANCH   4   6
ENDBRANCH   1   2
BRANCH   1  24
ATOM     24  C   UNL     1      -8.105  58.497  35.464  1.00  0.00     0.227 C 
BRANCH  24  25
ATOM     25  C   UNL     1      -8.398  59.818  34.741  1.00  0.00     0.168 C 
BRANCH  25  26
ATOM     26  O   UNL     1      -7.226  60.267  34.041  1.00  0.00    -0.388 OA
ATOM     27  H   UNL     1      -6.491  60.283  34.698  1.00  0.00     0.211 HD
ENDBRANCH  25  26
BRANCH  25  28
ATOM     28  C   UNL     1      -8.781  60.921  35.728  1.00  0.00     0.190 C 
BRANCH  28  29
ATOM     29  O   UNL     1      -9.023  60.357  37.017  1.00  0.00    -0.394 OA
ATOM     30  H   UNL     1      -9.078  59.393  36.853  1.00  0.00     0.210 HD
ENDBRANCH  28  29
ENDBRANCH  25  28
ENDBRANCH  24  25
ENDBRANCH   1  24
TORSDOF 9
ENDMDL
MODEL 20
REMARK VINA RESULT:    -7.499      3.947      5.638
REMARK INTER + INTRA:         -12.092
REMARK INTER:                 -10.036
REMARK INTRA:                  -2.055
REMARK UNBOUND:                -1.085
REMARK SMILES O=C(NOC[C@H](O)CO)c1ccc(F)c(F)c1Nc1ccc(I)cc1F
REMARK SMILES IDX 4 1 3 2 1 3 2 4 10 6 11 7 17 8 12 9 15 10 13 11 16 12 14 13
REMARK SMILES IDX 18 14 19 16 20 17 25 18 21 19 24 20 22 21 26 22 23 23 5 24
REMARK SMILES IDX 6 25 7 26 8 28 9 29
REMARK H PARENT 3 5 18 15 7 27 9 30
ROOT
ATOM      1  O   UNL     1      -8.302  59.021  33.188  1.00  0.00    -0.271 OA
ENDROOT
BRANCH   1   2
ATOM      2  N   UNL     1      -8.569  57.630  33.085  1.00  0.00    -0.231 N 
ATOM      3  O   UNL     1      -7.294  57.357  34.990  1.00  0.00    -0.267 OA
ATOM      4  C   UNL     1      -7.875  56.881  34.017  1.00  0.00     0.277 C 
ATOM      5  H   UNL     1      -8.625  57.291  32.129  1.00  0.00     0.199 HD
BRANCH   4   6
ATOM      6  C   UNL     1      -7.852  55.408  33.783  1.00  0.00     0.068 A 
ATOM      7  C   UNL     1      -8.924  54.628  34.262  1.00  0.00     0.019 A 
ATOM      8  C   UNL     1      -6.739  54.811  33.136  1.00  0.00     0.091 A 
ATOM      9  C   UNL     1      -8.913  53.247  34.091  1.00  0.00     0.043 A 
ATOM     10  C   UNL     1      -6.765  53.414  32.986  1.00  0.00     0.183 A 
ATOM     11  C   UNL     1      -7.833  52.651  33.455  1.00  0.00     0.161 A 
ATOM     12  F   UNL     1      -5.730  52.760  32.436  1.00  0.00    -0.201 F 
ATOM     13  F   UNL     1      -7.816  51.320  33.313  1.00  0.00    -0.204 F 
BRANCH   8  14
ATOM     14  N   UNL     1      -5.704  55.627  32.626  1.00  0.00    -0.350 N 
ATOM     15  H   UNL     1      -5.998  56.186  31.814  1.00  0.00     0.167 HD
BRANCH  14  16
ATOM     16  C   UNL     1      -4.401  55.940  33.053  1.00  0.00     0.075 A 
ATOM     17  C   UNL     1      -3.424  54.980  33.325  1.00  0.00     0.030 A 
ATOM     18  C   UNL     1      -4.053  57.290  33.242  1.00  0.00     0.147 A 
ATOM     19  C   UNL     1      -2.150  55.355  33.776  1.00  0.00     0.017 A 
ATOM     20  C   UNL     1      -2.792  57.679  33.685  1.00  0.00     0.056 A 
ATOM     21  C   UNL     1      -1.842  56.704  33.956  1.00  0.00     0.016 A 
ATOM     22  F   UNL     1      -4.966  58.242  32.992  1.00  0.00    -0.205 F 
ATOM     23  I   UNL     1       0.045  57.251  34.628  1.00  0.00    -0.044 I 
ENDBRANCH  14  16
ENDBRANCH   8  14
ENDBRANCH   4   6
ENDBRANCH   1   2
BRANCH   1  24
ATOM     24  C   UNL     1      -9.512  59.758  32.944  1.00  0.00     0.227 C 
BRANCH  24  25
ATOM     25  C   UNL     1     -10.203  60.008  34.291  1.00  0.00     0.168 C 
BRANCH  25  26
ATOM     26  O   UNL     1      -9.312  59.682  35.370  1.00  0.00    -0.388 OA
ATOM     27  H   UNL     1      -8.944  60.535  35.703  1.00  0.00     0.211 HD
ENDBRANCH  25  26
BRANCH  25  28
ATOM     28  C   UNL     1     -11.443  59.127  34.454  1.00  0.00     0.190 C 
BRANCH  28  29
ATOM     29  O   UNL     1     -11.100  57.930  35.152  1.00  0.00    -0.394 OA
ATOM     30  H   UNL     1     -11.665  57.241  34.743  1.00  0.00     0.210 HD
ENDBRANCH  28  29
ENDBRANCH  25  28
ENDBRANCH  24  25
ENDBRANCH   1  24
TORSDOF 9
ENDMDL
