MODEL 1
REMARK VINA RESULT:    -7.726      0.000      0.000
REMARK INTER + INTRA:         -12.253
REMARK INTER:                 -10.662
REMARK INTRA:                  -1.591
REMARK UNBOUND:                -1.591
REMARK SMILES Cn1cnc2c(F)c(Nc3ccc(Br)cc3Cl)c(C(=O)NOCCO)cc21
REMARK SMILES IDX 19 1 20 2 21 3 18 5 2 6 3 7 27 8 4 9 26 10 5 11 6 12 8 13
REMARK SMILES IDX 1 14 7 15 9 16 10 18 11 19 16 20 12 21 15 22 13 23 17 24
REMARK SMILES IDX 14 25 22 26 23 27 24 28 25 29
REMARK H PARENT 21 4 9 17 25 30
ROOT
ATOM      1  C   UNL     1      -8.159  56.014  32.768  1.00  0.00     0.277 C 
ATOM      2  O   UNL     1      -8.259  55.651  33.936  1.00  0.00    -0.267 OA
ATOM      3  N   UNL     1      -8.535  57.257  32.289  1.00  0.00    -0.231 N 
ATOM      4  H   UNL     1      -8.831  57.323  31.320  1.00  0.00     0.199 HD
ENDROOT
BRANCH   1   5
ATOM      5  C   UNL     1      -7.622  55.072  31.744  1.00  0.00     0.070 A 
ATOM      6  N   UNL     1      -8.367  53.437  28.463  1.00  0.00    -0.334 N 
ATOM      7  C   UNL     1      -7.429  52.594  27.942  1.00  0.00     0.200 A 
ATOM      8  C   UNL     1      -7.895  53.917  29.661  1.00  0.00     0.072 A 
ATOM      9  N   UNL     1      -6.379  52.504  28.723  1.00  0.00    -0.234 NA
ATOM     10  C   UNL     1      -8.418  54.801  30.609  1.00  0.00     0.045 A 
ATOM     11  C   UNL     1      -6.643  53.325  29.797  1.00  0.00     0.126 A 
ATOM     12  C   UNL     1      -5.861  53.626  30.930  1.00  0.00     0.175 A 
ATOM     13  C   UNL     1      -6.334  54.506  31.924  1.00  0.00     0.090 A 
ATOM     14  C   UNL     1      -9.630  53.763  27.848  1.00  0.00     0.151 C 
ATOM     15  F   UNL     1      -4.630  53.095  31.019  1.00  0.00    -0.202 F 
BRANCH  13  16
ATOM     16  N   UNL     1      -5.608  54.789  33.107  1.00  0.00    -0.351 N 
ATOM     17  H   UNL     1      -6.190  54.739  33.955  1.00  0.00     0.167 HD
BRANCH  16  18
ATOM     18  C   UNL     1      -4.280  55.177  33.372  1.00  0.00     0.057 A 
ATOM     19  C   UNL     1      -3.321  54.281  33.863  1.00  0.00     0.029 A 
ATOM     20  C   UNL     1      -3.866  56.504  33.123  1.00  0.00     0.065 A 
ATOM     21  C   UNL     1      -2.002  54.687  34.097  1.00  0.00     0.018 A 
ATOM     22  C   UNL     1      -2.552  56.917  33.355  1.00  0.00     0.038 A 
ATOM     23  C   UNL     1      -1.625  56.002  33.841  1.00  0.00     0.019 A 
ATOM     24  Cl  UNL     1      -4.986  57.679  32.518  1.00  0.00    -0.082 Cl
ATOM     25  Br  UNL     1       0.157  56.546  34.163  1.00  0.00    -0.051 Br
ENDBRANCH  16  18
ENDBRANCH  13  16
ENDBRANCH   1   5
BRANCH   3  26
ATOM     26  O   UNL     1      -9.365  57.975  33.190  1.00  0.00    -0.271 OA
BRANCH  26  27
ATOM     27  C   UNL     1      -9.349  59.359  32.816  1.00  0.00     0.222 C 
BRANCH  27  28
ATOM     28  C   UNL     1      -7.897  59.802  32.697  1.00  0.00     0.187 C 
BRANCH  28  29
ATOM     29  O   UNL     1      -7.528  59.918  31.322  1.00  0.00    -0.394 OA
ATOM     30  H   UNL     1      -6.638  60.318  31.319  1.00  0.00     0.210 HD
ENDBRANCH  28  29
ENDBRANCH  27  28
ENDBRANCH  26  27
ENDBRANCH   3  26
TORSDOF 7
ENDMDL
MODEL 2
REMARK VINA RESULT:    -7.621      8.559     11.995
REMARK INTER + INTRA:         -12.108
REMARK INTER:                 -10.602
REMARK INTRA:                  -1.505
REMARK UNBOUND:                -1.591
REMARK SMILES Cn1cnc2c(F)c(Nc3ccc(Br)cc3Cl)c(C(=O)NOCCO)cc21
REMARK SMILES IDX 19 1 20 2 21 3 18 5 2 6 3 7 27 8 4 9 26 10 5 11 6 12 8 13
REMARK SMILES IDX 1 14 7 15 9 16 10 18 11 19 16 20 12 21 15 22 13 23 17 24
REMARK SMILES IDX 14 25 22 26 23 27 24 28 25 29
REMARK H PARENT 21 4 9 17 25 30
ROOT
ATOM      1  C   UNL     1      -9.264  67.591  33.348  1.00  0.00     0.277 C 
ATOM      2  O   UNL     1      -9.654  67.214  32.247  1.00  0.00    -0.267 OA
ATOM      3  N   UNL     1      -9.995  68.373  34.224  1.00  0.00    -0.231 N 
ATOM      4  H   UNL     1      -9.486  68.980  34.858  1.00  0.00     0.199 HD
ENDROOT
BRANCH   1   5
ATOM      5  C   UNL     1      -7.894  67.226  33.811  1.00  0.00     0.070 A 
ATOM      6  N   UNL     1      -4.471  68.584  34.471  1.00  0.00    -0.334 N 
ATOM      7  C   UNL     1      -3.520  67.721  34.933  1.00  0.00     0.200 A 
ATOM      8  C   UNL     1      -5.639  67.882  34.295  1.00  0.00     0.072 A 
ATOM      9  N   UNL     1      -4.000  66.508  35.073  1.00  0.00    -0.234 NA
ATOM     10  C   UNL     1      -6.916  68.244  33.855  1.00  0.00     0.045 A 
ATOM     11  C   UNL     1      -5.320  66.584  34.687  1.00  0.00     0.126 A 
ATOM     12  C   UNL     1      -6.319  65.591  34.650  1.00  0.00     0.175 A 
ATOM     13  C   UNL     1      -7.625  65.893  34.213  1.00  0.00     0.090 A 
ATOM     14  C   UNL     1      -4.272  69.990  34.221  1.00  0.00     0.151 C 
ATOM     15  F   UNL     1      -6.015  64.359  35.089  1.00  0.00    -0.202 F 
BRANCH  13  16
ATOM     16  N   UNL     1      -8.642  64.913  34.102  1.00  0.00    -0.351 N 
ATOM     17  H   UNL     1      -9.573  65.272  34.358  1.00  0.00     0.167 HD
BRANCH  16  18
ATOM     18  C   UNL     1      -8.651  63.544  33.772  1.00  0.00     0.057 A 
ATOM     19  C   UNL     1      -8.648  63.092  32.446  1.00  0.00     0.029 A 
ATOM     20  C   UNL     1      -8.640  62.568  34.794  1.00  0.00     0.065 A 
ATOM     21  C   UNL     1      -8.634  61.725  32.146  1.00  0.00     0.018 A 
ATOM     22  C   UNL     1      -8.627  61.202  34.502  1.00  0.00     0.038 A 
ATOM     23  C   UNL     1      -8.622  60.788  33.174  1.00  0.00     0.019 A 
ATOM     24  Cl  UNL     1      -8.646  63.037  36.461  1.00  0.00    -0.082 Cl
ATOM     25  Br  UNL     1      -8.608  58.943  32.763  1.00  0.00    -0.051 Br
ENDBRANCH  16  18
ENDBRANCH  13  16
ENDBRANCH   1   5
BRANCH   3  26
ATOM     26  O   UNL     1     -11.116  68.996  33.614  1.00  0.00    -0.271 OA
BRANCH  26  27
ATOM     27  C   UNL     1     -12.267  68.768  34.438  1.00  0.00     0.222 C 
BRANCH  27  28
ATOM     28  C   UNL     1     -12.732  67.335  34.219  1.00  0.00     0.187 C 
BRANCH  28  29
ATOM     29  O   UNL     1     -12.062  66.455  35.123  1.00  0.00    -0.394 OA
ATOM     30  H   UNL     1     -12.576  65.627  35.117  1.00  0.00     0.210 HD
ENDBRANCH  28  29
ENDBRANCH  27  28
ENDBRANCH  26  27
ENDBRANCH   3  26
TORSDOF 7
ENDMDL
MODEL 3
REMARK VINA RESULT:    -7.610      2.233      3.077
REMARK INTER + INTRA:         -12.093
REMARK INTER:                 -10.533
REMARK INTRA:                  -1.559
REMARK UNBOUND:                -1.591
REMARK SMILES Cn1cnc2c(F)c(Nc3ccc(Br)cc3Cl)c(C(=O)NOCCO)cc21
REMARK SMILES IDX 19 1 20 2 21 3 18 5 2 6 3 7 27 8 4 9 26 10 5 11 6 12 8 13
REMARK SMILES IDX 1 14 7 15 9 16 10 18 11 19 16 20 12 21 15 22 13 23 17 24
REMARK SMILES IDX 14 25 22 26 23 27 24 28 25 29
REMARK H PARENT 21 4 9 17 25 30
ROOT
ATOM      1  C   UNL     1      -8.358  54.988  32.448  1.00  0.00     0.277 C 
ATOM      2  O   UNL     1      -8.872  56.046  32.098  1.00  0.00    -0.267 OA
ATOM      3  N   UNL     1      -8.228  54.563  33.758  1.00  0.00    -0.231 N 
ATOM      4  H   UNL     1      -7.450  53.951  33.985  1.00  0.00     0.199 HD
ENDROOT
BRANCH   1   5
ATOM      5  C   UNL     1      -7.793  54.066  31.420  1.00  0.00     0.070 A 
ATOM      6  N   UNL     1      -8.247  50.735  29.778  1.00  0.00    -0.334 N 
ATOM      7  C   UNL     1      -7.356  50.373  28.810  1.00  0.00     0.200 A 
ATOM      8  C   UNL     1      -7.894  51.978  30.244  1.00  0.00     0.072 A 
ATOM      9  N   UNL     1      -6.454  51.306  28.616  1.00  0.00    -0.234 NA
ATOM     10  C   UNL     1      -8.438  52.826  31.213  1.00  0.00     0.045 A 
ATOM     11  C   UNL     1      -6.772  52.319  29.494  1.00  0.00     0.126 A 
ATOM     12  C   UNL     1      -6.157  53.569  29.707  1.00  0.00     0.175 A 
ATOM     13  C   UNL     1      -6.656  54.466  30.672  1.00  0.00     0.090 A 
ATOM     14  C   UNL     1      -9.366  49.941  30.222  1.00  0.00     0.151 C 
ATOM     15  F   UNL     1      -5.113  53.910  28.935  1.00  0.00    -0.202 F 
BRANCH  13  16
ATOM     16  N   UNL     1      -6.033  55.705  30.963  1.00  0.00    -0.351 N 
ATOM     17  H   UNL     1      -6.473  56.498  30.474  1.00  0.00     0.167 HD
BRANCH  16  18
ATOM     18  C   UNL     1      -4.912  56.082  31.727  1.00  0.00     0.057 A 
ATOM     19  C   UNL     1      -3.701  55.378  31.680  1.00  0.00     0.029 A 
ATOM     20  C   UNL     1      -4.972  57.219  32.562  1.00  0.00     0.065 A 
ATOM     21  C   UNL     1      -2.594  55.787  32.432  1.00  0.00     0.018 A 
ATOM     22  C   UNL     1      -3.872  57.633  33.317  1.00  0.00     0.038 A 
ATOM     23  C   UNL     1      -2.685  56.912  33.246  1.00  0.00     0.019 A 
ATOM     24  Cl  UNL     1      -6.430  58.148  32.684  1.00  0.00    -0.082 Cl
ATOM     25  Br  UNL     1      -1.189  57.458  34.263  1.00  0.00    -0.051 Br
ENDBRANCH  16  18
ENDBRANCH  13  16
ENDBRANCH   1   5
BRANCH   3  26
ATOM     26  O   UNL     1      -8.432  55.601  34.704  1.00  0.00    -0.271 OA
BRANCH  26  27
ATOM     27  C   UNL     1      -9.624  55.312  35.446  1.00  0.00     0.222 C 
BRANCH  27  28
ATOM     28  C   UNL     1      -9.315  54.181  36.419  1.00  0.00     0.187 C 
BRANCH  28  29
ATOM     29  O   UNL     1      -9.694  52.926  35.851  1.00  0.00    -0.394 OA
ATOM     30  H   UNL     1     -10.356  53.134  35.166  1.00  0.00     0.210 HD
ENDBRANCH  28  29
ENDBRANCH  27  28
ENDBRANCH  26  27
ENDBRANCH   3  26
TORSDOF 7
ENDMDL
MODEL 4
REMARK VINA RESULT:    -7.591      9.991     12.738
REMARK INTER + INTRA:         -12.066
REMARK INTER:                 -10.734
REMARK INTRA:                  -1.332
REMARK UNBOUND:                -1.591
REMARK SMILES Cn1cnc2c(F)c(Nc3ccc(Br)cc3Cl)c(C(=O)NOCCO)cc21
REMARK SMILES IDX 19 1 20 2 21 3 18 5 2 6 3 7 27 8 4 9 26 10 5 11 6 12 8 13
REMARK SMILES IDX 1 14 7 15 9 16 10 18 11 19 16 20 12 21 15 22 13 23 17 24
REMARK SMILES IDX 14 25 22 26 23 27 24 28 25 29
REMARK H PARENT 21 4 9 17 25 30
ROOT
ATOM      1  C   UNL     1     -11.614  68.160  33.272  1.00  0.00     0.277 C 
ATOM      2  O   UNL     1     -11.377  69.010  34.124  1.00  0.00    -0.267 OA
ATOM      3  N   UNL     1     -12.706  68.171  32.423  1.00  0.00    -0.231 N 
ATOM      4  H   UNL     1     -13.058  67.279  32.089  1.00  0.00     0.199 HD
ENDROOT
BRANCH   1   5
ATOM      5  C   UNL     1     -10.698  66.993  33.118  1.00  0.00     0.070 A 
ATOM      6  N   UNL     1     -10.579  63.259  32.901  1.00  0.00    -0.334 N 
ATOM      7  C   UNL     1      -9.360  62.668  32.742  1.00  0.00     0.200 A 
ATOM      8  C   UNL     1     -10.392  64.620  32.961  1.00  0.00     0.072 A 
ATOM      9  N   UNL     1      -8.398  63.558  32.689  1.00  0.00    -0.234 NA
ATOM     10  C   UNL     1     -11.267  65.700  33.109  1.00  0.00     0.045 A 
ATOM     11  C   UNL     1      -9.017  64.782  32.816  1.00  0.00     0.126 A 
ATOM     12  C   UNL     1      -8.476  66.084  32.811  1.00  0.00     0.175 A 
ATOM     13  C   UNL     1      -9.306  67.213  32.960  1.00  0.00     0.090 A 
ATOM     14  C   UNL     1     -11.840  62.565  32.985  1.00  0.00     0.151 C 
ATOM     15  F   UNL     1      -7.157  66.229  32.609  1.00  0.00    -0.202 F 
BRANCH  13  16
ATOM     16  N   UNL     1      -8.799  68.535  33.022  1.00  0.00    -0.351 N 
ATOM     17  H   UNL     1      -9.462  69.235  32.660  1.00  0.00     0.167 HD
BRANCH  16  18
ATOM     18  C   UNL     1      -7.568  69.094  33.416  1.00  0.00     0.057 A 
ATOM     19  C   UNL     1      -6.772  69.847  32.542  1.00  0.00     0.029 A 
ATOM     20  C   UNL     1      -7.103  68.925  34.739  1.00  0.00     0.065 A 
ATOM     21  C   UNL     1      -5.563  70.411  32.966  1.00  0.00     0.018 A 
ATOM     22  C   UNL     1      -5.897  69.484  35.169  1.00  0.00     0.038 A 
ATOM     23  C   UNL     1      -5.133  70.227  34.276  1.00  0.00     0.019 A 
ATOM     24  Cl  UNL     1      -8.021  68.007  35.886  1.00  0.00    -0.082 Cl
ATOM     25  Br  UNL     1      -3.498  70.988  34.842  1.00  0.00    -0.051 Br
ENDBRANCH  16  18
ENDBRANCH  13  16
ENDBRANCH   1   5
BRANCH   3  26
ATOM     26  O   UNL     1     -13.725  69.068  32.836  1.00  0.00    -0.271 OA
BRANCH  26  27
ATOM     27  C   UNL     1     -14.772  68.311  33.459  1.00  0.00     0.222 C 
BRANCH  27  28
ATOM     28  C   UNL     1     -15.274  67.280  32.456  1.00  0.00     0.187 C 
BRANCH  28  29
ATOM     29  O   UNL     1     -15.432  67.880  31.170  1.00  0.00    -0.394 OA
ATOM     30  H   UNL     1     -15.382  67.147  30.528  1.00  0.00     0.210 HD
ENDBRANCH  28  29
ENDBRANCH  27  28
ENDBRANCH  26  27
ENDBRANCH   3  26
TORSDOF 7
ENDMDL
MODEL 5
REMARK VINA RESULT:    -7.489      4.228      6.832
REMARK INTER + INTRA:         -11.926
REMARK INTER:                 -10.667
REMARK INTRA:                  -1.258
REMARK UNBOUND:                -1.591
REMARK SMILES Cn1cnc2c(F)c(Nc3ccc(Br)cc3Cl)c(C(=O)NOCCO)cc21
REMARK SMILES IDX 19 1 20 2 21 3 18 5 2 6 3 7 27 8 4 9 26 10 5 11 6 12 8 13
REMARK SMILES IDX 1 14 7 15 9 16 10 18 11 19 16 20 12 21 15 22 13 23 17 24
REMARK SMILES IDX 14 25 22 26 23 27 24 28 25 29
REMARK H PARENT 21 4 9 17 25 30
ROOT
ATOM      1  C   UNL     1      -6.169  56.455  32.718  1.00  0.00     0.277 C 
ATOM      2  O   UNL     1      -5.095  56.427  33.311  1.00  0.00    -0.267 OA
ATOM      3  N   UNL     1      -6.372  56.022  31.420  1.00  0.00    -0.231 N 
ATOM      4  H   UNL     1      -7.111  56.462  30.881  1.00  0.00     0.199 HD
ENDROOT
BRANCH   1   5
ATOM      5  C   UNL     1      -7.373  57.016  33.398  1.00  0.00     0.070 A 
ATOM      6  N   UNL     1      -9.277  60.170  34.048  1.00  0.00    -0.334 N 
ATOM      7  C   UNL     1     -10.415  60.086  34.797  1.00  0.00     0.200 A 
ATOM      8  C   UNL     1      -8.741  58.909  33.939  1.00  0.00     0.072 A 
ATOM      9  N   UNL     1     -10.651  58.852  35.174  1.00  0.00    -0.234 NA
ATOM     10  C   UNL     1      -7.606  58.405  33.297  1.00  0.00     0.045 A 
ATOM     11  C   UNL     1      -9.625  58.099  34.646  1.00  0.00     0.126 A 
ATOM     12  C   UNL     1      -9.380  56.713  34.717  1.00  0.00     0.175 A 
ATOM     13  C   UNL     1      -8.251  56.145  34.094  1.00  0.00     0.090 A 
ATOM     14  C   UNL     1      -8.744  61.379  33.471  1.00  0.00     0.151 C 
ATOM     15  F   UNL     1     -10.273  55.935  35.350  1.00  0.00    -0.202 F 
BRANCH  13  16
ATOM     16  N   UNL     1      -7.932  54.768  34.192  1.00  0.00    -0.351 N 
ATOM     17  H   UNL     1      -7.334  54.552  35.001  1.00  0.00     0.167 HD
BRANCH  16  18
ATOM     18  C   UNL     1      -8.207  53.640  33.394  1.00  0.00     0.057 A 
ATOM     19  C   UNL     1      -9.499  53.339  32.942  1.00  0.00     0.029 A 
ATOM     20  C   UNL     1      -7.160  52.777  33.001  1.00  0.00     0.065 A 
ATOM     21  C   UNL     1      -9.741  52.224  32.131  1.00  0.00     0.018 A 
ATOM     22  C   UNL     1      -7.395  51.662  32.192  1.00  0.00     0.038 A 
ATOM     23  C   UNL     1      -8.689  51.393  31.760  1.00  0.00     0.019 A 
ATOM     24  Cl  UNL     1      -5.533  53.072  33.516  1.00  0.00    -0.082 Cl
ATOM     25  Br  UNL     1      -9.023  49.886  30.668  1.00  0.00    -0.051 Br
ENDBRANCH  16  18
ENDBRANCH  13  16
ENDBRANCH   1   5
BRANCH   3  26
ATOM     26  O   UNL     1      -5.164  55.847  30.695  1.00  0.00    -0.271 OA
BRANCH  26  27
ATOM     27  C   UNL     1      -5.150  54.521  30.150  1.00  0.00     0.222 C 
BRANCH  27  28
ATOM     28  C   UNL     1      -3.848  54.338  29.380  1.00  0.00     0.187 C 
BRANCH  28  29
ATOM     29  O   UNL     1      -3.356  55.604  28.938  1.00  0.00    -0.394 OA
ATOM     30  H   UNL     1      -3.104  56.087  29.747  1.00  0.00     0.210 HD
ENDBRANCH  28  29
ENDBRANCH  27  28
ENDBRANCH  26  27
ENDBRANCH   3  26
TORSDOF 7
ENDMDL
MODEL 6
REMARK VINA RESULT:    -7.480      3.151      5.916
REMARK INTER + INTRA:         -11.914
REMARK INTER:                 -10.529
REMARK INTRA:                  -1.385
REMARK UNBOUND:                -1.591
REMARK SMILES Cn1cnc2c(F)c(Nc3ccc(Br)cc3Cl)c(C(=O)NOCCO)cc21
REMARK SMILES IDX 19 1 20 2 21 3 18 5 2 6 3 7 27 8 4 9 26 10 5 11 6 12 8 13
REMARK SMILES IDX 1 14 7 15 9 16 10 18 11 19 16 20 12 21 15 22 13 23 17 24
REMARK SMILES IDX 14 25 22 26 23 27 24 28 25 29
REMARK H PARENT 21 4 9 17 25 30
ROOT
ATOM      1  C   UNL     1      -7.067  57.834  32.634  1.00  0.00     0.277 C 
ATOM      2  O   UNL     1      -8.050  57.264  33.096  1.00  0.00    -0.267 OA
ATOM      3  N   UNL     1      -7.082  59.080  32.032  1.00  0.00    -0.231 N 
ATOM      4  H   UNL     1      -6.383  59.274  31.322  1.00  0.00     0.199 HD
ENDROOT
BRANCH   1   5
ATOM      5  C   UNL     1      -5.735  57.164  32.677  1.00  0.00     0.070 A 
ATOM      6  N   UNL     1      -2.361  57.256  34.291  1.00  0.00    -0.334 N 
ATOM      7  C   UNL     1      -1.450  56.310  33.919  1.00  0.00     0.200 A 
ATOM      8  C   UNL     1      -3.517  57.041  33.579  1.00  0.00     0.072 A 
ATOM      9  N   UNL     1      -1.944  55.495  33.018  1.00  0.00    -0.234 NA
ATOM     10  C   UNL     1      -4.757  57.686  33.552  1.00  0.00     0.045 A 
ATOM     11  C   UNL     1      -3.234  55.926  32.795  1.00  0.00     0.126 A 
ATOM     12  C   UNL     1      -4.232  55.415  31.942  1.00  0.00     0.175 A 
ATOM     13  C   UNL     1      -5.502  56.022  31.868  1.00  0.00     0.090 A 
ATOM     14  C   UNL     1      -2.138  58.293  35.268  1.00  0.00     0.151 C 
ATOM     15  F   UNL     1      -3.966  54.303  31.237  1.00  0.00    -0.202 F 
BRANCH  13  16
ATOM     16  N   UNL     1      -6.513  55.579  30.980  1.00  0.00    -0.351 N 
ATOM     17  H   UNL     1      -6.934  56.347  30.438  1.00  0.00     0.167 HD
BRANCH  16  18
ATOM     18  C   UNL     1      -7.108  54.329  30.718  1.00  0.00     0.057 A 
ATOM     19  C   UNL     1      -7.307  53.853  29.416  1.00  0.00     0.029 A 
ATOM     20  C   UNL     1      -7.507  53.496  31.786  1.00  0.00     0.065 A 
ATOM     21  C   UNL     1      -7.880  52.597  29.183  1.00  0.00     0.018 A 
ATOM     22  C   UNL     1      -8.080  52.242  31.562  1.00  0.00     0.038 A 
ATOM     23  C   UNL     1      -8.262  51.798  30.256  1.00  0.00     0.019 A 
ATOM     24  Cl  UNL     1      -7.300  54.007  33.428  1.00  0.00    -0.082 Cl
ATOM     25  Br  UNL     1      -9.039  50.105  29.937  1.00  0.00    -0.051 Br
ENDBRANCH  16  18
ENDBRANCH  13  16
ENDBRANCH   1   5
BRANCH   3  26
ATOM     26  O   UNL     1      -8.387  59.515  31.682  1.00  0.00    -0.271 OA
BRANCH  26  27
ATOM     27  C   UNL     1      -8.533  60.884  32.083  1.00  0.00     0.222 C 
BRANCH  27  28
ATOM     28  C   UNL     1      -8.737  60.917  33.593  1.00  0.00     0.187 C 
BRANCH  28  29
ATOM     29  O   UNL     1      -7.483  61.079  34.256  1.00  0.00    -0.394 OA
ATOM     30  H   UNL     1      -7.608  61.815  34.883  1.00  0.00     0.210 HD
ENDBRANCH  28  29
ENDBRANCH  27  28
ENDBRANCH  26  27
ENDBRANCH   3  26
TORSDOF 7
ENDMDL
MODEL 7
REMARK VINA RESULT:    -7.468      9.434     12.907
REMARK INTER + INTRA:         -11.897
REMARK INTER:                 -10.317
REMARK INTRA:                  -1.581
REMARK UNBOUND:                -1.591
REMARK SMILES Cn1cnc2c(F)c(Nc3ccc(Br)cc3Cl)c(C(=O)NOCCO)cc21
REMARK SMILES IDX 19 1 20 2 21 3 18 5 2 6 3 7 27 8 4 9 26 10 5 11 6 12 8 13
REMARK SMILES IDX 1 14 7 15 9 16 10 18 11 19 16 20 12 21 15 22 13 23 17 24
REMARK SMILES IDX 14 25 22 26 23 27 24 28 25 29
REMARK H PARENT 21 4 9 17 25 30
ROOT
ATOM      1  C   UNL     1     -10.126  68.134  33.240  1.00  0.00     0.277 C 
ATOM      2  O   UNL     1     -10.576  67.654  32.204  1.00  0.00    -0.267 OA
ATOM      3  N   UNL     1     -10.883  68.720  34.239  1.00  0.00    -0.231 N 
ATOM      4  H   UNL     1     -10.450  69.444  34.802  1.00  0.00     0.199 HD
ENDROOT
BRANCH   1   5
ATOM      5  C   UNL     1      -8.653  68.131  33.477  1.00  0.00     0.070 A 
ATOM      6  N   UNL     1      -5.724  70.312  34.290  1.00  0.00    -0.334 N 
ATOM      7  C   UNL     1      -4.499  69.721  34.401  1.00  0.00     0.200 A 
ATOM      8  C   UNL     1      -6.645  69.339  33.986  1.00  0.00     0.072 A 
ATOM      9  N   UNL     1      -4.570  68.427  34.193  1.00  0.00    -0.234 NA
ATOM     10  C   UNL     1      -8.025  69.363  33.765  1.00  0.00     0.045 A 
ATOM     11  C   UNL     1      -5.898  68.164  33.939  1.00  0.00     0.126 A 
ATOM     12  C   UNL     1      -6.552  66.946  33.666  1.00  0.00     0.175 A 
ATOM     13  C   UNL     1      -7.941  66.905  33.432  1.00  0.00     0.090 A 
ATOM     14  C   UNL     1      -5.993  71.717  34.471  1.00  0.00     0.151 C 
ATOM     15  F   UNL     1      -5.830  65.813  33.684  1.00  0.00    -0.202 F 
BRANCH  13  16
ATOM     16  N   UNL     1      -8.627  65.713  33.093  1.00  0.00    -0.351 N 
ATOM     17  H   UNL     1      -9.235  65.822  32.270  1.00  0.00     0.167 HD
BRANCH  16  18
ATOM     18  C   UNL     1      -8.704  64.430  33.669  1.00  0.00     0.057 A 
ATOM     19  C   UNL     1      -8.417  63.265  32.946  1.00  0.00     0.029 A 
ATOM     20  C   UNL     1      -9.058  64.283  35.028  1.00  0.00     0.065 A 
ATOM     21  C   UNL     1      -8.478  62.003  33.548  1.00  0.00     0.018 A 
ATOM     22  C   UNL     1      -9.123  63.027  35.637  1.00  0.00     0.038 A 
ATOM     23  C   UNL     1      -8.830  61.891  34.890  1.00  0.00     0.019 A 
ATOM     24  Cl  UNL     1      -9.433  65.669  35.998  1.00  0.00    -0.082 Cl
ATOM     25  Br  UNL     1      -8.916  60.184  35.698  1.00  0.00    -0.051 Br
ENDBRANCH  16  18
ENDBRANCH  13  16
ENDBRANCH   1   5
BRANCH   3  26
ATOM     26  O   UNL     1     -12.205  69.033  33.826  1.00  0.00    -0.271 OA
BRANCH  26  27
ATOM     27  C   UNL     1     -13.125  68.356  34.694  1.00  0.00     0.222 C 
BRANCH  27  28
ATOM     28  C   UNL     1     -13.986  67.431  33.844  1.00  0.00     0.187 C 
BRANCH  28  29
ATOM     29  O   UNL     1     -13.411  67.275  32.547  1.00  0.00    -0.394 OA
ATOM     30  H   UNL     1     -12.834  68.051  32.418  1.00  0.00     0.210 HD
ENDBRANCH  28  29
ENDBRANCH  27  28
ENDBRANCH  26  27
ENDBRANCH   3  26
TORSDOF 7
ENDMDL
MODEL 8
REMARK VINA RESULT:    -7.464      3.500      6.434
REMARK INTER + INTRA:         -11.892
REMARK INTER:                 -10.233
REMARK INTRA:                  -1.659
REMARK UNBOUND:                -1.591
REMARK SMILES Cn1cnc2c(F)c(Nc3ccc(Br)cc3Cl)c(C(=O)NOCCO)cc21
REMARK SMILES IDX 19 1 20 2 21 3 18 5 2 6 3 7 27 8 4 9 26 10 5 11 6 12 8 13
REMARK SMILES IDX 1 14 7 15 9 16 10 18 11 19 16 20 12 21 15 22 13 23 17 24
REMARK SMILES IDX 14 25 22 26 23 27 24 28 25 29
REMARK H PARENT 21 4 9 17 25 30
ROOT
ATOM      1  C   UNL     1      -5.002  57.610  33.200  1.00  0.00     0.277 C 
ATOM      2  O   UNL     1      -5.398  57.631  32.038  1.00  0.00    -0.267 OA
ATOM      3  N   UNL     1      -5.731  58.040  34.295  1.00  0.00    -0.231 N 
ATOM      4  H   UNL     1      -5.220  58.395  35.096  1.00  0.00     0.199 HD
ENDROOT
BRANCH   1   5
ATOM      5  C   UNL     1      -3.627  57.117  33.504  1.00  0.00     0.070 A 
ATOM      6  N   UNL     1      -0.177  58.199  34.465  1.00  0.00    -0.334 N 
ATOM      7  C   UNL     1       0.772  57.233  34.628  1.00  0.00     0.200 A 
ATOM      8  C   UNL     1      -1.356  57.587  34.112  1.00  0.00     0.072 A 
ATOM      9  N   UNL     1       0.282  56.036  34.409  1.00  0.00    -0.234 NA
ATOM     10  C   UNL     1      -2.637  58.071  33.828  1.00  0.00     0.045 A 
ATOM     11  C   UNL     1      -1.045  56.230  34.093  1.00  0.00     0.126 A 
ATOM     12  C   UNL     1      -2.055  55.299  33.783  1.00  0.00     0.175 A 
ATOM     13  C   UNL     1      -3.365  55.723  33.484  1.00  0.00     0.090 A 
ATOM     14  C   UNL     1       0.032  59.615  34.642  1.00  0.00     0.151 C 
ATOM     15  F   UNL     1      -1.757  53.990  33.827  1.00  0.00    -0.202 F 
BRANCH  13  16
ATOM     16  N   UNL     1      -4.395  54.827  33.107  1.00  0.00    -0.351 N 
ATOM     17  H   UNL     1      -5.089  54.678  33.853  1.00  0.00     0.167 HD
BRANCH  16  18
ATOM     18  C   UNL     1      -4.648  54.052  31.958  1.00  0.00     0.057 A 
ATOM     19  C   UNL     1      -4.036  54.319  30.725  1.00  0.00     0.029 A 
ATOM     20  C   UNL     1      -5.525  52.948  32.025  1.00  0.00     0.065 A 
ATOM     21  C   UNL     1      -4.287  53.519  29.604  1.00  0.00     0.018 A 
ATOM     22  C   UNL     1      -5.781  52.146  30.910  1.00  0.00     0.038 A 
ATOM     23  C   UNL     1      -5.156  52.438  29.702  1.00  0.00     0.019 A 
ATOM     24  Cl  UNL     1      -6.327  52.547  33.508  1.00  0.00    -0.082 Cl
ATOM     25  Br  UNL     1      -5.494  51.364  28.184  1.00  0.00    -0.051 Br
ENDBRANCH  16  18
ENDBRANCH  13  16
ENDBRANCH   1   5
BRANCH   3  26
ATOM     26  O   UNL     1      -6.858  58.827  33.941  1.00  0.00    -0.271 OA
BRANCH  26  27
ATOM     27  C   UNL     1      -8.039  58.177  34.430  1.00  0.00     0.222 C 
BRANCH  27  28
ATOM     28  C   UNL     1      -8.748  57.529  33.248  1.00  0.00     0.187 C 
BRANCH  28  29
ATOM     29  O   UNL     1      -8.289  58.102  32.024  1.00  0.00    -0.394 OA
ATOM     30  H   UNL     1      -7.486  58.606  32.252  1.00  0.00     0.210 HD
ENDBRANCH  28  29
ENDBRANCH  27  28
ENDBRANCH  26  27
ENDBRANCH   3  26
TORSDOF 7
ENDMDL
MODEL 9
REMARK VINA RESULT:    -7.328      3.662      5.913
REMARK INTER + INTRA:         -11.704
REMARK INTER:                 -10.175
REMARK INTRA:                  -1.528
REMARK UNBOUND:                -1.591
REMARK SMILES Cn1cnc2c(F)c(Nc3ccc(Br)cc3Cl)c(C(=O)NOCCO)cc21
REMARK SMILES IDX 19 1 20 2 21 3 18 5 2 6 3 7 27 8 4 9 26 10 5 11 6 12 8 13
REMARK SMILES IDX 1 14 7 15 9 16 10 18 11 19 16 20 12 21 15 22 13 23 17 24
REMARK SMILES IDX 14 25 22 26 23 27 24 28 25 29
REMARK H PARENT 21 4 9 17 25 30
ROOT
ATOM      1  C   UNL     1      -9.329  55.030  31.649  1.00  0.00     0.277 C 
ATOM      2  O   UNL     1      -9.718  54.073  32.311  1.00  0.00    -0.267 OA
ATOM      3  N   UNL     1      -9.413  55.130  30.271  1.00  0.00    -0.231 N 
ATOM      4  H   UNL     1      -8.718  55.691  29.791  1.00  0.00     0.199 HD
ENDROOT
BRANCH   1   5
ATOM      5  C   UNL     1      -8.686  56.189  32.332  1.00  0.00     0.070 A 
ATOM      6  N   UNL     1      -9.070  59.829  33.107  1.00  0.00    -0.334 N 
ATOM      7  C   UNL     1      -8.089  60.433  33.839  1.00  0.00     0.200 A 
ATOM      8  C   UNL     1      -8.728  58.509  32.937  1.00  0.00     0.072 A 
ATOM      9  N   UNL     1      -7.139  59.587  34.159  1.00  0.00    -0.234 NA
ATOM     10  C   UNL     1      -9.347  57.437  32.288  1.00  0.00     0.045 A 
ATOM     11  C   UNL     1      -7.518  58.380  33.614  1.00  0.00     0.126 A 
ATOM     12  C   UNL     1      -6.887  57.120  33.658  1.00  0.00     0.175 A 
ATOM     13  C   UNL     1      -7.459  56.001  33.020  1.00  0.00     0.090 A 
ATOM     14  C   UNL     1     -10.258  60.476  32.608  1.00  0.00     0.151 C 
ATOM     15  F   UNL     1      -5.752  56.996  34.365  1.00  0.00    -0.202 F 
BRANCH  13  16
ATOM     16  N   UNL     1      -6.830  54.733  32.986  1.00  0.00    -0.351 N 
ATOM     17  H   UNL     1      -6.705  54.322  33.922  1.00  0.00     0.167 HD
BRANCH  16  18
ATOM     18  C   UNL     1      -6.286  53.936  31.959  1.00  0.00     0.057 A 
ATOM     19  C   UNL     1      -5.519  54.476  30.918  1.00  0.00     0.029 A 
ATOM     20  C   UNL     1      -6.486  52.538  31.965  1.00  0.00     0.065 A 
ATOM     21  C   UNL     1      -4.972  53.659  29.922  1.00  0.00     0.018 A 
ATOM     22  C   UNL     1      -5.943  51.716  30.974  1.00  0.00     0.038 A 
ATOM     23  C   UNL     1      -5.185  52.284  29.956  1.00  0.00     0.019 A 
ATOM     24  Cl  UNL     1      -7.423  51.786  33.213  1.00  0.00    -0.082 Cl
ATOM     25  Br  UNL     1      -4.447  51.186  28.606  1.00  0.00    -0.051 Br
ENDBRANCH  16  18
ENDBRANCH  13  16
ENDBRANCH   1   5
BRANCH   3  26
ATOM     26  O   UNL     1      -9.681  53.888  29.638  1.00  0.00    -0.271 OA
BRANCH  26  27
ATOM     27  C   UNL     1      -8.551  53.540  28.825  1.00  0.00     0.222 C 
BRANCH  27  28
ATOM     28  C   UNL     1      -8.906  53.828  27.372  1.00  0.00     0.187 C 
BRANCH  28  29
ATOM     29  O   UNL     1     -10.027  54.709  27.303  1.00  0.00    -0.394 OA
ATOM     30  H   UNL     1      -9.952  55.294  28.081  1.00  0.00     0.210 HD
ENDBRANCH  28  29
ENDBRANCH  27  28
ENDBRANCH  26  27
ENDBRANCH   3  26
TORSDOF 7
ENDMDL
MODEL 10
REMARK VINA RESULT:    -7.262      8.475     10.809
REMARK INTER + INTRA:         -11.612
REMARK INTER:                 -10.370
REMARK INTRA:                  -1.243
REMARK UNBOUND:                -1.591
REMARK SMILES Cn1cnc2c(F)c(Nc3ccc(Br)cc3Cl)c(C(=O)NOCCO)cc21
REMARK SMILES IDX 19 1 20 2 21 3 18 5 2 6 3 7 27 8 4 9 26 10 5 11 6 12 8 13
REMARK SMILES IDX 1 14 7 15 9 16 10 18 11 19 16 20 12 21 15 22 13 23 17 24
REMARK SMILES IDX 14 25 22 26 23 27 24 28 25 29
REMARK H PARENT 21 4 9 17 25 30
ROOT
ATOM      1  C   UNL     1      -9.547  66.293  32.720  1.00  0.00     0.277 C 
ATOM      2  O   UNL     1      -8.690  67.028  32.240  1.00  0.00    -0.267 OA
ATOM      3  N   UNL     1     -10.906  66.554  32.725  1.00  0.00    -0.231 N 
ATOM      4  H   UNL     1     -11.463  66.164  33.478  1.00  0.00     0.199 HD
ENDROOT
BRANCH   1   5
ATOM      5  C   UNL     1      -9.141  65.020  33.385  1.00  0.00     0.070 A 
ATOM      6  N   UNL     1      -9.851  61.352  33.568  1.00  0.00    -0.334 N 
ATOM      7  C   UNL     1      -9.100  60.598  34.423  1.00  0.00     0.200 A 
ATOM      8  C   UNL     1      -9.430  62.657  33.663  1.00  0.00     0.072 A 
ATOM      9  N   UNL     1      -8.217  61.331  35.059  1.00  0.00    -0.234 NA
ATOM     10  C   UNL     1      -9.828  63.838  33.030  1.00  0.00     0.045 A 
ATOM     11  C   UNL     1      -8.399  62.616  34.597  1.00  0.00     0.126 A 
ATOM     12  C   UNL     1      -7.718  63.806  34.920  1.00  0.00     0.175 A 
ATOM     13  C   UNL     1      -8.075  65.030  34.320  1.00  0.00     0.090 A 
ATOM     14  C   UNL     1     -10.900  60.851  32.713  1.00  0.00     0.151 C 
ATOM     15  F   UNL     1      -6.686  63.743  35.777  1.00  0.00    -0.202 F 
BRANCH  13  16
ATOM     16  N   UNL     1      -7.459  66.260  34.660  1.00  0.00    -0.351 N 
ATOM     17  H   UNL     1      -8.132  66.969  34.982  1.00  0.00     0.167 HD
BRANCH  16  18
ATOM     18  C   UNL     1      -6.137  66.743  34.602  1.00  0.00     0.057 A 
ATOM     19  C   UNL     1      -5.039  65.898  34.388  1.00  0.00     0.029 A 
ATOM     20  C   UNL     1      -5.879  68.125  34.737  1.00  0.00     0.065 A 
ATOM     21  C   UNL     1      -3.737  66.406  34.312  1.00  0.00     0.018 A 
ATOM     22  C   UNL     1      -4.582  68.639  34.663  1.00  0.00     0.038 A 
ATOM     23  C   UNL     1      -3.516  67.773  34.448  1.00  0.00     0.019 A 
ATOM     24  Cl  UNL     1      -7.176  69.241  35.007  1.00  0.00    -0.082 Cl
ATOM     25  Br  UNL     1      -1.755  68.453  34.349  1.00  0.00    -0.051 Br
ENDBRANCH  16  18
ENDBRANCH  13  16
ENDBRANCH   1   5
BRANCH   3  26
ATOM     26  O   UNL     1     -11.215  67.907  32.428  1.00  0.00    -0.271 OA
BRANCH  26  27
ATOM     27  C   UNL     1     -11.605  68.562  33.643  1.00  0.00     0.222 C 
BRANCH  27  28
ATOM     28  C   UNL     1     -12.823  67.838  34.202  1.00  0.00     0.187 C 
BRANCH  28  29
ATOM     29  O   UNL     1     -12.414  66.806  35.100  1.00  0.00    -0.394 OA
ATOM     30  H   UNL     1     -12.650  65.966  34.663  1.00  0.00     0.210 HD
ENDBRANCH  28  29
ENDBRANCH  27  28
ENDBRANCH  26  27
ENDBRANCH   3  26
TORSDOF 7
ENDMDL
MODEL 11
REMARK VINA RESULT:    -7.239      3.854      5.868
REMARK INTER + INTRA:         -11.581
REMARK INTER:                 -10.222
REMARK INTRA:                  -1.359
REMARK UNBOUND:                -1.591
REMARK SMILES Cn1cnc2c(F)c(Nc3ccc(Br)cc3Cl)c(C(=O)NOCCO)cc21
REMARK SMILES IDX 19 1 20 2 21 3 18 5 2 6 3 7 27 8 4 9 26 10 5 11 6 12 8 13
REMARK SMILES IDX 1 14 7 15 9 16 10 18 11 19 16 20 12 21 15 22 13 23 17 24
REMARK SMILES IDX 14 25 22 26 23 27 24 28 25 29
REMARK H PARENT 21 4 9 17 25 30
ROOT
ATOM      1  C   UNL     1      -4.645  55.329  31.985  1.00  0.00     0.277 C 
ATOM      2  O   UNL     1      -4.959  56.407  31.489  1.00  0.00    -0.267 OA
ATOM      3  N   UNL     1      -3.496  55.097  32.720  1.00  0.00    -0.231 N 
ATOM      4  H   UNL     1      -3.104  54.162  32.707  1.00  0.00     0.199 HD
ENDROOT
BRANCH   1   5
ATOM      5  C   UNL     1      -5.524  54.140  31.786  1.00  0.00     0.070 A 
ATOM      6  N   UNL     1      -5.953  51.002  29.795  1.00  0.00    -0.334 N 
ATOM      7  C   UNL     1      -7.036  50.218  30.064  1.00  0.00     0.200 A 
ATOM      8  C   UNL     1      -5.994  52.093  30.629  1.00  0.00     0.072 A 
ATOM      9  N   UNL     1      -7.772  50.729  31.023  1.00  0.00    -0.234 NA
ATOM     10  C   UNL     1      -5.158  53.201  30.798  1.00  0.00     0.045 A 
ATOM     11  C   UNL     1      -7.139  51.894  31.396  1.00  0.00     0.126 A 
ATOM     12  C   UNL     1      -7.473  52.837  32.388  1.00  0.00     0.175 A 
ATOM     13  C   UNL     1      -6.672  53.977  32.604  1.00  0.00     0.090 A 
ATOM     14  C   UNL     1      -4.942  50.720  28.806  1.00  0.00     0.151 C 
ATOM     15  F   UNL     1      -8.546  52.602  33.161  1.00  0.00    -0.202 F 
BRANCH  13  16
ATOM     16  N   UNL     1      -7.004  54.981  33.547  1.00  0.00    -0.351 N 
ATOM     17  H   UNL     1      -6.388  54.975  34.371  1.00  0.00     0.167 HD
BRANCH  16  18
ATOM     18  C   UNL     1      -8.026  55.947  33.630  1.00  0.00     0.057 A 
ATOM     19  C   UNL     1      -8.120  57.018  32.731  1.00  0.00     0.029 A 
ATOM     20  C   UNL     1      -9.018  55.846  34.630  1.00  0.00     0.065 A 
ATOM     21  C   UNL     1      -9.158  57.952  32.822  1.00  0.00     0.018 A 
ATOM     22  C   UNL     1     -10.058  56.775  34.727  1.00  0.00     0.038 A 
ATOM     23  C   UNL     1     -10.121  57.825  33.818  1.00  0.00     0.019 A 
ATOM     24  Cl  UNL     1      -8.979  54.555  35.784  1.00  0.00    -0.082 Cl
ATOM     25  Br  UNL     1     -11.520  59.091  33.939  1.00  0.00    -0.051 Br
ENDBRANCH  16  18
ENDBRANCH  13  16
ENDBRANCH   1   5
BRANCH   3  26
ATOM     26  O   UNL     1      -2.526  56.124  32.577  1.00  0.00    -0.271 OA
BRANCH  26  27
ATOM     27  C   UNL     1      -1.590  56.019  33.658  1.00  0.00     0.222 C 
BRANCH  27  28
ATOM     28  C   UNL     1      -1.295  54.542  33.888  1.00  0.00     0.187 C 
BRANCH  28  29
ATOM     29  O   UNL     1       0.071  54.259  33.581  1.00  0.00    -0.394 OA
ATOM     30  H   UNL     1       0.125  53.290  33.483  1.00  0.00     0.210 HD
ENDBRANCH  28  29
ENDBRANCH  27  28
ENDBRANCH  26  27
ENDBRANCH   3  26
TORSDOF 7
ENDMDL
MODEL 12
REMARK VINA RESULT:    -7.228      3.225      6.087
REMARK INTER + INTRA:         -11.566
REMARK INTER:                  -9.906
REMARK INTRA:                  -1.660
REMARK UNBOUND:                -1.591
REMARK SMILES Cn1cnc2c(F)c(Nc3ccc(Br)cc3Cl)c(C(=O)NOCCO)cc21
REMARK SMILES IDX 19 1 20 2 21 3 18 5 2 6 3 7 27 8 4 9 26 10 5 11 6 12 8 13
REMARK SMILES IDX 1 14 7 15 9 16 10 18 11 19 16 20 12 21 15 22 13 23 17 24
REMARK SMILES IDX 14 25 22 26 23 27 24 28 25 29
REMARK H PARENT 21 4 9 17 25 30
ROOT
ATOM      1  C   UNL     1      -6.819  57.811  33.036  1.00  0.00     0.277 C 
ATOM      2  O   UNL     1      -7.202  58.515  32.107  1.00  0.00    -0.267 OA
ATOM      3  N   UNL     1      -7.587  57.450  34.129  1.00  0.00    -0.231 N 
ATOM      4  H   UNL     1      -7.111  57.269  35.006  1.00  0.00     0.199 HD
ENDROOT
BRANCH   1   5
ATOM      5  C   UNL     1      -5.416  57.302  33.048  1.00  0.00     0.070 A 
ATOM      6  N   UNL     1      -2.121  57.578  34.798  1.00  0.00    -0.334 N 
ATOM      7  C   UNL     1      -1.092  56.804  34.346  1.00  0.00     0.200 A 
ATOM      8  C   UNL     1      -3.223  57.324  34.017  1.00  0.00     0.072 A 
ATOM      9  N   UNL     1      -1.460  56.061  33.330  1.00  0.00    -0.234 NA
ATOM     10  C   UNL     1      -4.532  57.816  34.022  1.00  0.00     0.045 A 
ATOM     11  C   UNL     1      -2.786  56.363  33.110  1.00  0.00     0.126 A 
ATOM     12  C   UNL     1      -3.693  55.854  32.159  1.00  0.00     0.175 A 
ATOM     13  C   UNL     1      -5.025  56.312  32.110  1.00  0.00     0.090 A 
ATOM     14  C   UNL     1      -2.051  58.497  35.907  1.00  0.00     0.151 C 
ATOM     15  F   UNL     1      -3.275  54.884  31.329  1.00  0.00    -0.202 F 
BRANCH  13  16
ATOM     16  N   UNL     1      -5.952  55.874  31.133  1.00  0.00    -0.351 N 
ATOM     17  H   UNL     1      -6.138  56.584  30.411  1.00  0.00     0.167 HD
BRANCH  16  18
ATOM     18  C   UNL     1      -6.715  54.702  30.963  1.00  0.00     0.057 A 
ATOM     19  C   UNL     1      -7.848  54.427  31.741  1.00  0.00     0.029 A 
ATOM     20  C   UNL     1      -6.365  53.765  29.966  1.00  0.00     0.065 A 
ATOM     21  C   UNL     1      -8.603  53.266  31.536  1.00  0.00     0.018 A 
ATOM     22  C   UNL     1      -7.113  52.604  29.757  1.00  0.00     0.038 A 
ATOM     23  C   UNL     1      -8.232  52.362  30.546  1.00  0.00     0.019 A 
ATOM     24  Cl  UNL     1      -4.978  54.024  28.961  1.00  0.00    -0.082 Cl
ATOM     25  Br  UNL     1      -9.253  50.794  30.277  1.00  0.00    -0.051 Br
ENDBRANCH  16  18
ENDBRANCH  13  16
ENDBRANCH   1   5
BRANCH   3  26
ATOM     26  O   UNL     1      -8.762  58.234  34.268  1.00  0.00    -0.271 OA
BRANCH  26  27
ATOM     27  C   UNL     1      -8.595  59.106  35.395  1.00  0.00     0.222 C 
BRANCH  27  28
ATOM     28  C   UNL     1      -8.650  60.544  34.894  1.00  0.00     0.187 C 
BRANCH  28  29
ATOM     29  O   UNL     1      -7.524  60.820  34.061  1.00  0.00    -0.394 OA
ATOM     30  H   UNL     1      -7.629  60.250  33.277  1.00  0.00     0.210 HD
ENDBRANCH  28  29
ENDBRANCH  27  28
ENDBRANCH  26  27
ENDBRANCH   3  26
TORSDOF 7
ENDMDL
MODEL 13
REMARK VINA RESULT:    -7.221      3.735      6.321
REMARK INTER + INTRA:         -11.556
REMARK INTER:                  -9.929
REMARK INTRA:                  -1.626
REMARK UNBOUND:                -1.591
REMARK SMILES Cn1cnc2c(F)c(Nc3ccc(Br)cc3Cl)c(C(=O)NOCCO)cc21
REMARK SMILES IDX 19 1 20 2 21 3 18 5 2 6 3 7 27 8 4 9 26 10 5 11 6 12 8 13
REMARK SMILES IDX 1 14 7 15 9 16 10 18 11 19 16 20 12 21 15 22 13 23 17 24
REMARK SMILES IDX 14 25 22 26 23 27 24 28 25 29
REMARK H PARENT 21 4 9 17 25 30
ROOT
ATOM      1  C   UNL     1      -5.336  57.498  32.669  1.00  0.00     0.277 C 
ATOM      2  O   UNL     1      -5.020  56.854  31.674  1.00  0.00    -0.267 OA
ATOM      3  N   UNL     1      -4.453  57.959  33.630  1.00  0.00    -0.231 N 
ATOM      4  H   UNL     1      -4.797  58.073  34.577  1.00  0.00     0.199 HD
ENDROOT
BRANCH   1   5
ATOM      5  C   UNL     1      -6.772  57.810  32.923  1.00  0.00     0.070 A 
ATOM      6  N   UNL     1      -9.322  60.547  32.860  1.00  0.00    -0.334 N 
ATOM      7  C   UNL     1     -10.602  60.236  33.217  1.00  0.00     0.200 A 
ATOM      8  C   UNL     1      -8.560  59.408  32.958  1.00  0.00     0.072 A 
ATOM      9  N   UNL     1     -10.717  58.968  33.534  1.00  0.00    -0.234 NA
ATOM     10  C   UNL     1      -7.209  59.137  32.717  1.00  0.00     0.045 A 
ATOM     11  C   UNL     1      -9.459  58.429  33.373  1.00  0.00     0.126 A 
ATOM     12  C   UNL     1      -9.001  57.109  33.555  1.00  0.00     0.175 A 
ATOM     13  C   UNL     1      -7.651  56.774  33.332  1.00  0.00     0.090 A 
ATOM     14  C   UNL     1      -8.863  61.850  32.447  1.00  0.00     0.151 C 
ATOM     15  F   UNL     1      -9.891  56.163  33.897  1.00  0.00    -0.202 F 
BRANCH  13  16
ATOM     16  N   UNL     1      -7.135  55.474  33.561  1.00  0.00    -0.351 N 
ATOM     17  H   UNL     1      -6.581  55.410  34.427  1.00  0.00     0.167 HD
BRANCH  16  18
ATOM     18  C   UNL     1      -7.166  54.266  32.837  1.00  0.00     0.057 A 
ATOM     19  C   UNL     1      -8.319  53.815  32.181  1.00  0.00     0.029 A 
ATOM     20  C   UNL     1      -6.002  53.472  32.731  1.00  0.00     0.065 A 
ATOM     21  C   UNL     1      -8.317  52.622  31.449  1.00  0.00     0.018 A 
ATOM     22  C   UNL     1      -5.993  52.280  32.003  1.00  0.00     0.038 A 
ATOM     23  C   UNL     1      -7.154  51.862  31.363  1.00  0.00     0.019 A 
ATOM     24  Cl  UNL     1      -4.533  53.952  33.513  1.00  0.00    -0.082 Cl
ATOM     25  Br  UNL     1      -7.158  50.249  30.377  1.00  0.00    -0.051 Br
ENDBRANCH  16  18
ENDBRANCH  13  16
ENDBRANCH   1   5
BRANCH   3  26
ATOM     26  O   UNL     1      -3.177  57.342  33.556  1.00  0.00    -0.271 OA
BRANCH  26  27
ATOM     27  C   UNL     1      -2.856  56.805  34.847  1.00  0.00     0.222 C 
BRANCH  27  28
ATOM     28  C   UNL     1      -3.354  57.782  35.904  1.00  0.00     0.187 C 
BRANCH  28  29
ATOM     29  O   UNL     1      -2.630  59.010  35.821  1.00  0.00    -0.394 OA
ATOM     30  H   UNL     1      -2.921  59.542  36.585  1.00  0.00     0.210 HD
ENDBRANCH  28  29
ENDBRANCH  27  28
ENDBRANCH  26  27
ENDBRANCH   3  26
TORSDOF 7
ENDMDL
MODEL 14
REMARK VINA RESULT:    -7.219      7.768     11.677
REMARK INTER + INTRA:         -11.553
REMARK INTER:                 -10.162
REMARK INTRA:                  -1.391
REMARK UNBOUND:                -1.591
REMARK SMILES Cn1cnc2c(F)c(Nc3ccc(Br)cc3Cl)c(C(=O)NOCCO)cc21
REMARK SMILES IDX 19 1 20 2 21 3 18 5 2 6 3 7 27 8 4 9 26 10 5 11 6 12 8 13
REMARK SMILES IDX 1 14 7 15 9 16 10 18 11 19 16 20 12 21 15 22 13 23 17 24
REMARK SMILES IDX 14 25 22 26 23 27 24 28 25 29
REMARK H PARENT 21 4 9 17 25 30
ROOT
ATOM      1  C   UNL     1      -8.329  62.874  34.976  1.00  0.00     0.277 C 
ATOM      2  O   UNL     1      -8.939  62.672  36.022  1.00  0.00    -0.267 OA
ATOM      3  N   UNL     1      -7.868  61.888  34.122  1.00  0.00    -0.231 N 
ATOM      4  H   UNL     1      -7.045  62.088  33.565  1.00  0.00     0.199 HD
ENDROOT
BRANCH   1   5
ATOM      5  C   UNL     1      -8.014  64.272  34.563  1.00  0.00     0.070 A 
ATOM      6  N   UNL     1      -5.224  66.713  34.056  1.00  0.00    -0.334 N 
ATOM      7  C   UNL     1      -5.543  67.966  33.621  1.00  0.00     0.200 A 
ATOM      8  C   UNL     1      -6.387  65.991  34.178  1.00  0.00     0.072 A 
ATOM      9  N   UNL     1      -6.837  68.099  33.448  1.00  0.00    -0.234 NA
ATOM     10  C   UNL     1      -6.661  64.677  34.570  1.00  0.00     0.045 A 
ATOM     11  C   UNL     1      -7.383  66.879  33.782  1.00  0.00     0.126 A 
ATOM     12  C   UNL     1      -8.724  66.445  33.767  1.00  0.00     0.175 A 
ATOM     13  C   UNL     1      -9.065  65.134  34.155  1.00  0.00     0.090 A 
ATOM     14  C   UNL     1      -3.890  66.238  34.331  1.00  0.00     0.151 C 
ATOM     15  F   UNL     1      -9.668  67.292  33.325  1.00  0.00    -0.202 F 
BRANCH  13  16
ATOM     16  N   UNL     1     -10.404  64.675  34.214  1.00  0.00    -0.351 N 
ATOM     17  H   UNL     1     -10.813  64.755  35.156  1.00  0.00     0.167 HD
BRANCH  16  18
ATOM     18  C   UNL     1     -11.278  64.081  33.282  1.00  0.00     0.057 A 
ATOM     19  C   UNL     1     -11.153  62.744  32.885  1.00  0.00     0.029 A 
ATOM     20  C   UNL     1     -12.340  64.830  32.730  1.00  0.00     0.065 A 
ATOM     21  C   UNL     1     -12.049  62.171  31.974  1.00  0.00     0.018 A 
ATOM     22  C   UNL     1     -13.238  64.266  31.819  1.00  0.00     0.038 A 
ATOM     23  C   UNL     1     -13.086  62.935  31.447  1.00  0.00     0.019 A 
ATOM     24  Cl  UNL     1     -12.567  66.491  33.163  1.00  0.00    -0.082 Cl
ATOM     25  Br  UNL     1     -14.290  62.159  30.214  1.00  0.00    -0.051 Br
ENDBRANCH  16  18
ENDBRANCH  13  16
ENDBRANCH   1   5
BRANCH   3  26
ATOM     26  O   UNL     1      -7.857  60.598  34.715  1.00  0.00    -0.271 OA
BRANCH  26  27
ATOM     27  C   UNL     1      -7.958  59.618  33.672  1.00  0.00     0.222 C 
BRANCH  27  28
ATOM     28  C   UNL     1      -8.343  60.334  32.384  1.00  0.00     0.187 C 
BRANCH  28  29
ATOM     29  O   UNL     1      -7.452  59.965  31.330  1.00  0.00    -0.394 OA
ATOM     30  H   UNL     1      -7.609  59.016  31.170  1.00  0.00     0.210 HD
ENDBRANCH  28  29
ENDBRANCH  27  28
ENDBRANCH  26  27
ENDBRANCH   3  26
TORSDOF 7
ENDMDL
MODEL 15
REMARK VINA RESULT:    -7.217      3.118      6.073
REMARK INTER + INTRA:         -11.550
REMARK INTER:                 -10.387
REMARK INTRA:                  -1.163
REMARK UNBOUND:                -1.591
REMARK SMILES Cn1cnc2c(F)c(Nc3ccc(Br)cc3Cl)c(C(=O)NOCCO)cc21
REMARK SMILES IDX 19 1 20 2 21 3 18 5 2 6 3 7 27 8 4 9 26 10 5 11 6 12 8 13
REMARK SMILES IDX 1 14 7 15 9 16 10 18 11 19 16 20 12 21 15 22 13 23 17 24
REMARK SMILES IDX 14 25 22 26 23 27 24 28 25 29
REMARK H PARENT 21 4 9 17 25 30
ROOT
ATOM      1  C   UNL     1      -6.482  58.084  32.737  1.00  0.00     0.277 C 
ATOM      2  O   UNL     1      -6.718  58.820  31.784  1.00  0.00    -0.267 OA
ATOM      3  N   UNL     1      -7.307  57.917  33.835  1.00  0.00    -0.231 N 
ATOM      4  H   UNL     1      -6.876  57.673  34.721  1.00  0.00     0.199 HD
ENDROOT
BRANCH   1   5
ATOM      5  C   UNL     1      -5.209  57.307  32.773  1.00  0.00     0.070 A 
ATOM      6  N   UNL     1      -1.832  57.122  34.374  1.00  0.00    -0.334 N 
ATOM      7  C   UNL     1      -1.002  56.107  33.997  1.00  0.00     0.200 A 
ATOM      8  C   UNL     1      -3.004  57.004  33.666  1.00  0.00     0.072 A 
ATOM      9  N   UNL     1      -1.564  55.336  33.097  1.00  0.00    -0.234 NA
ATOM     10  C   UNL     1      -4.188  57.746  33.646  1.00  0.00     0.045 A 
ATOM     11  C   UNL     1      -2.815  55.870  32.880  1.00  0.00     0.126 A 
ATOM     12  C   UNL     1      -3.856  55.443  32.031  1.00  0.00     0.175 A 
ATOM     13  C   UNL     1      -5.072  56.152  31.962  1.00  0.00     0.090 A 
ATOM     14  C   UNL     1      -1.522  58.136  35.351  1.00  0.00     0.151 C 
ATOM     15  F   UNL     1      -3.684  54.315  31.323  1.00  0.00    -0.202 F 
BRANCH  13  16
ATOM     16  N   UNL     1      -6.120  55.794  31.078  1.00  0.00    -0.351 N 
ATOM     17  H   UNL     1      -6.562  56.609  30.631  1.00  0.00     0.167 HD
BRANCH  16  18
ATOM     18  C   UNL     1      -6.725  54.573  30.720  1.00  0.00     0.057 A 
ATOM     19  C   UNL     1      -6.346  53.855  29.578  1.00  0.00     0.029 A 
ATOM     20  C   UNL     1      -7.737  54.018  31.534  1.00  0.00     0.065 A 
ATOM     21  C   UNL     1      -6.948  52.633  29.257  1.00  0.00     0.018 A 
ATOM     22  C   UNL     1      -8.343  52.799  31.220  1.00  0.00     0.038 A 
ATOM     23  C   UNL     1      -7.942  52.111  30.080  1.00  0.00     0.019 A 
ATOM     24  Cl  UNL     1      -8.269  54.839  32.963  1.00  0.00    -0.082 Cl
ATOM     25  Br  UNL     1      -8.755  50.462  29.639  1.00  0.00    -0.051 Br
ENDBRANCH  16  18
ENDBRANCH  13  16
ENDBRANCH   1   5
BRANCH   3  26
ATOM     26  O   UNL     1      -8.302  58.923  33.943  1.00  0.00    -0.271 OA
BRANCH  26  27
ATOM     27  C   UNL     1      -9.586  58.315  33.745  1.00  0.00     0.222 C 
BRANCH  27  28
ATOM     28  C   UNL     1     -10.630  59.170  34.451  1.00  0.00     0.187 C 
BRANCH  28  29
ATOM     29  O   UNL     1     -11.589  58.338  35.106  1.00  0.00    -0.394 OA
ATOM     30  H   UNL     1     -11.668  57.540  34.551  1.00  0.00     0.210 HD
ENDBRANCH  28  29
ENDBRANCH  27  28
ENDBRANCH  26  27
ENDBRANCH   3  26
TORSDOF 7
ENDMDL
MODEL 16
REMARK VINA RESULT:    -7.164      9.245     11.362
REMARK INTER + INTRA:         -11.477
REMARK INTER:                 -10.014
REMARK INTRA:                  -1.463
REMARK UNBOUND:                -1.591
REMARK SMILES Cn1cnc2c(F)c(Nc3ccc(Br)cc3Cl)c(C(=O)NOCCO)cc21
REMARK SMILES IDX 19 1 20 2 21 3 18 5 2 6 3 7 27 8 4 9 26 10 5 11 6 12 8 13
REMARK SMILES IDX 1 14 7 15 9 16 10 18 11 19 16 20 12 21 15 22 13 23 17 24
REMARK SMILES IDX 14 25 22 26 23 27 24 28 25 29
REMARK H PARENT 21 4 9 17 25 30
ROOT
ATOM      1  C   UNL     1     -10.802  67.219  33.318  1.00  0.00     0.277 C 
ATOM      2  O   UNL     1     -10.367  67.823  34.294  1.00  0.00    -0.267 OA
ATOM      3  N   UNL     1     -11.628  67.763  32.351  1.00  0.00    -0.231 N 
ATOM      4  H   UNL     1     -12.268  67.142  31.867  1.00  0.00     0.199 HD
ENDROOT
BRANCH   1   5
ATOM      5  C   UNL     1     -10.464  65.778  33.130  1.00  0.00     0.070 A 
ATOM      6  N   UNL     1     -11.833  62.304  33.354  1.00  0.00    -0.334 N 
ATOM      7  C   UNL     1     -11.005  61.269  33.030  1.00  0.00     0.200 A 
ATOM      8  C   UNL     1     -11.133  63.477  33.208  1.00  0.00     0.072 A 
ATOM      9  N   UNL     1      -9.816  61.698  32.678  1.00  0.00    -0.234 NA
ATOM     10  C   UNL     1     -11.469  64.821  33.393  1.00  0.00     0.045 A 
ATOM     11  C   UNL     1      -9.873  63.071  32.775  1.00  0.00     0.126 A 
ATOM     12  C   UNL     1      -8.894  64.047  32.503  1.00  0.00     0.175 A 
ATOM     13  C   UNL     1      -9.170  65.418  32.674  1.00  0.00     0.090 A 
ATOM     14  C   UNL     1     -13.208  62.174  33.770  1.00  0.00     0.151 C 
ATOM     15  F   UNL     1      -7.703  63.646  32.028  1.00  0.00    -0.202 F 
BRANCH  13  16
ATOM     16  N   UNL     1      -8.198  66.428  32.471  1.00  0.00    -0.351 N 
ATOM     17  H   UNL     1      -8.391  67.011  31.645  1.00  0.00     0.167 HD
BRANCH  16  18
ATOM     18  C   UNL     1      -6.995  66.774  33.120  1.00  0.00     0.057 A 
ATOM     19  C   UNL     1      -6.069  65.812  33.544  1.00  0.00     0.029 A 
ATOM     20  C   UNL     1      -6.675  68.131  33.343  1.00  0.00     0.065 A 
ATOM     21  C   UNL     1      -4.871  66.183  34.165  1.00  0.00     0.018 A 
ATOM     22  C   UNL     1      -5.482  68.510  33.964  1.00  0.00     0.038 A 
ATOM     23  C   UNL     1      -4.584  67.529  34.371  1.00  0.00     0.019 A 
ATOM     24  Cl  UNL     1      -7.764  69.387  32.854  1.00  0.00    -0.082 Cl
ATOM     25  Br  UNL     1      -2.967  68.025  35.215  1.00  0.00    -0.051 Br
ENDBRANCH  16  18
ENDBRANCH  13  16
ENDBRANCH   1   5
BRANCH   3  26
ATOM     26  O   UNL     1     -12.216  68.993  32.747  1.00  0.00    -0.271 OA
BRANCH  26  27
ATOM     27  C   UNL     1     -13.566  68.738  33.161  1.00  0.00     0.222 C 
BRANCH  27  28
ATOM     28  C   UNL     1     -13.691  69.114  34.631  1.00  0.00     0.187 C 
BRANCH  28  29
ATOM     29  O   UNL     1     -12.580  69.919  35.030  1.00  0.00    -0.394 OA
ATOM     30  H   UNL     1     -11.796  69.343  34.955  1.00  0.00     0.210 HD
ENDBRANCH  28  29
ENDBRANCH  27  28
ENDBRANCH  26  27
ENDBRANCH   3  26
TORSDOF 7
ENDMDL
MODEL 17
REMARK VINA RESULT:    -7.121      7.292     10.831
REMARK INTER + INTRA:         -11.418
REMARK INTER:                 -10.007
REMARK INTRA:                  -1.411
REMARK UNBOUND:                -1.591
REMARK SMILES Cn1cnc2c(F)c(Nc3ccc(Br)cc3Cl)c(C(=O)NOCCO)cc21
REMARK SMILES IDX 19 1 20 2 21 3 18 5 2 6 3 7 27 8 4 9 26 10 5 11 6 12 8 13
REMARK SMILES IDX 1 14 7 15 9 16 10 18 11 19 16 20 12 21 15 22 13 23 17 24
REMARK SMILES IDX 14 25 22 26 23 27 24 28 25 29
REMARK H PARENT 21 4 9 17 25 30
ROOT
ATOM      1  C   UNL     1      -9.335  62.342  34.407  1.00  0.00     0.277 C 
ATOM      2  O   UNL     1      -8.998  62.432  35.584  1.00  0.00    -0.267 OA
ATOM      3  N   UNL     1      -8.837  61.417  33.507  1.00  0.00    -0.231 N 
ATOM      4  H   UNL     1      -8.817  61.672  32.525  1.00  0.00     0.199 HD
ENDROOT
BRANCH   1   5
ATOM      5  C   UNL     1     -10.336  63.298  33.850  1.00  0.00     0.070 A 
ATOM      6  N   UNL     1     -13.460  63.544  31.805  1.00  0.00    -0.334 N 
ATOM      7  C   UNL     1     -13.992  64.783  31.599  1.00  0.00     0.200 A 
ATOM      8  C   UNL     1     -12.326  63.684  32.569  1.00  0.00     0.072 A 
ATOM      9  N   UNL     1     -13.279  65.715  32.186  1.00  0.00    -0.234 NA
ATOM     10  C   UNL     1     -11.397  62.773  33.079  1.00  0.00     0.045 A 
ATOM     11  C   UNL     1     -12.239  65.054  32.802  1.00  0.00     0.126 A 
ATOM     12  C   UNL     1     -11.181  65.551  33.589  1.00  0.00     0.175 A 
ATOM     13  C   UNL     1     -10.211  64.683  34.129  1.00  0.00     0.090 A 
ATOM     14  C   UNL     1     -14.006  62.306  31.306  1.00  0.00     0.151 C 
ATOM     15  F   UNL     1     -11.143  66.866  33.857  1.00  0.00    -0.202 F 
BRANCH  13  16
ATOM     16  N   UNL     1      -9.097  65.145  34.873  1.00  0.00    -0.351 N 
ATOM     17  H   UNL     1      -8.898  64.563  35.699  1.00  0.00     0.167 HD
BRANCH  16  18
ATOM     18  C   UNL     1      -8.238  66.256  34.763  1.00  0.00     0.057 A 
ATOM     19  C   UNL     1      -8.375  67.392  35.571  1.00  0.00     0.029 A 
ATOM     20  C   UNL     1      -7.179  66.244  33.828  1.00  0.00     0.065 A 
ATOM     21  C   UNL     1      -7.494  68.473  35.457  1.00  0.00     0.018 A 
ATOM     22  C   UNL     1      -6.296  67.320  33.708  1.00  0.00     0.038 A 
ATOM     23  C   UNL     1      -6.459  68.431  34.527  1.00  0.00     0.019 A 
ATOM     24  Cl  UNL     1      -6.937  64.882  32.786  1.00  0.00    -0.082 Cl
ATOM     25  Br  UNL     1      -5.275  69.897  34.374  1.00  0.00    -0.051 Br
ENDBRANCH  16  18
ENDBRANCH  13  16
ENDBRANCH   1   5
BRANCH   3  26
ATOM     26  O   UNL     1      -7.648  60.785  33.957  1.00  0.00    -0.271 OA
BRANCH  26  27
ATOM     27  C   UNL     1      -7.778  59.372  33.747  1.00  0.00     0.222 C 
BRANCH  27  28
ATOM     28  C   UNL     1      -7.056  59.016  32.454  1.00  0.00     0.187 C 
BRANCH  28  29
ATOM     29  O   UNL     1      -7.474  59.885  31.401  1.00  0.00    -0.394 OA
ATOM     30  H   UNL     1      -8.404  60.106  31.594  1.00  0.00     0.210 HD
ENDBRANCH  28  29
ENDBRANCH  27  28
ENDBRANCH  26  27
ENDBRANCH   3  26
TORSDOF 7
ENDMDL
MODEL 18
REMARK VINA RESULT:    -7.072      8.271     12.020
REMARK INTER + INTRA:         -11.351
REMARK INTER:                 -10.010
REMARK INTRA:                  -1.341
REMARK UNBOUND:                -1.591
REMARK SMILES Cn1cnc2c(F)c(Nc3ccc(Br)cc3Cl)c(C(=O)NOCCO)cc21
REMARK SMILES IDX 19 1 20 2 21 3 18 5 2 6 3 7 27 8 4 9 26 10 5 11 6 12 8 13
REMARK SMILES IDX 1 14 7 15 9 16 10 18 11 19 16 20 12 21 15 22 13 23 17 24
REMARK SMILES IDX 14 25 22 26 23 27 24 28 25 29
REMARK H PARENT 21 4 9 17 25 30
ROOT
ATOM      1  C   UNL     1      -9.065  63.894  32.880  1.00  0.00     0.277 C 
ATOM      2  O   UNL     1      -8.432  63.699  31.847  1.00  0.00    -0.267 OA
ATOM      3  N   UNL     1      -8.943  63.149  34.039  1.00  0.00    -0.231 N 
ATOM      4  H   UNL     1      -9.753  63.077  34.646  1.00  0.00     0.199 HD
ENDROOT
BRANCH   1   5
ATOM      5  C   UNL     1     -10.074  64.992  32.932  1.00  0.00     0.070 A 
ATOM      6  N   UNL     1     -13.694  65.737  33.513  1.00  0.00    -0.334 N 
ATOM      7  C   UNL     1     -14.099  67.038  33.433  1.00  0.00     0.200 A 
ATOM      8  C   UNL     1     -12.343  65.691  33.263  1.00  0.00     0.072 A 
ATOM      9  N   UNL     1     -13.096  67.836  33.155  1.00  0.00    -0.234 NA
ATOM     10  C   UNL     1     -11.414  64.648  33.217  1.00  0.00     0.045 A 
ATOM     11  C   UNL     1     -11.990  67.021  33.051  1.00  0.00     0.126 A 
ATOM     12  C   UNL     1     -10.643  67.339  32.785  1.00  0.00     0.175 A 
ATOM     13  C   UNL     1      -9.660  66.332  32.722  1.00  0.00     0.090 A 
ATOM     14  C   UNL     1     -14.547  64.613  33.813  1.00  0.00     0.151 C 
ATOM     15  F   UNL     1     -10.305  68.631  32.643  1.00  0.00    -0.202 F 
BRANCH  13  16
ATOM     16  N   UNL     1      -8.307  66.600  32.397  1.00  0.00    -0.351 N 
ATOM     17  H   UNL     1      -7.947  65.991  31.649  1.00  0.00     0.167 HD
BRANCH  16  18
ATOM     18  C   UNL     1      -7.331  67.476  32.911  1.00  0.00     0.057 A 
ATOM     19  C   UNL     1      -7.392  68.862  32.717  1.00  0.00     0.029 A 
ATOM     20  C   UNL     1      -6.254  66.970  33.672  1.00  0.00     0.065 A 
ATOM     21  C   UNL     1      -6.421  69.713  33.258  1.00  0.00     0.018 A 
ATOM     22  C   UNL     1      -5.281  67.813  34.214  1.00  0.00     0.038 A 
ATOM     23  C   UNL     1      -5.372  69.185  34.004  1.00  0.00     0.019 A 
ATOM     24  Cl  UNL     1      -6.098  65.269  33.959  1.00  0.00    -0.082 Cl
ATOM     25  Br  UNL     1      -4.062  70.339  34.728  1.00  0.00    -0.051 Br
ENDBRANCH  16  18
ENDBRANCH  13  16
ENDBRANCH   1   5
BRANCH   3  26
ATOM     26  O   UNL     1      -8.267  61.917  33.842  1.00  0.00    -0.271 OA
BRANCH  26  27
ATOM     27  C   UNL     1      -9.243  60.902  33.567  1.00  0.00     0.222 C 
BRANCH  27  28
ATOM     28  C   UNL     1      -8.806  60.149  32.317  1.00  0.00     0.187 C 
BRANCH  28  29
ATOM     29  O   UNL     1      -7.645  60.761  31.753  1.00  0.00    -0.394 OA
ATOM     30  H   UNL     1      -7.270  60.102  31.140  1.00  0.00     0.210 HD
ENDBRANCH  28  29
ENDBRANCH  27  28
ENDBRANCH  26  27
ENDBRANCH   3  26
TORSDOF 7
ENDMDL
MODEL 19
REMARK VINA RESULT:    -6.976      3.857      6.808
REMARK INTER + INTRA:         -11.218
REMARK INTER:                  -9.631
REMARK INTRA:                  -1.587
REMARK UNBOUND:                -1.591
REMARK SMILES Cn1cnc2c(F)c(Nc3ccc(Br)cc3Cl)c(C(=O)NOCCO)cc21
REMARK SMILES IDX 19 1 20 2 21 3 18 5 2 6 3 7 27 8 4 9 26 10 5 11 6 12 8 13
REMARK SMILES IDX 1 14 7 15 9 16 10 18 11 19 16 20 12 21 15 22 13 23 17 24
REMARK SMILES IDX 14 25 22 26 23 27 24 28 25 29
REMARK H PARENT 21 4 9 17 25 30
ROOT
ATOM      1  C   UNL     1      -5.764  57.860  32.585  1.00  0.00     0.277 C 
ATOM      2  O   UNL     1      -5.573  57.389  31.468  1.00  0.00    -0.267 OA
ATOM      3  N   UNL     1      -4.779  58.090  33.529  1.00  0.00    -0.231 N 
ATOM      4  H   UNL     1      -5.040  58.050  34.509  1.00  0.00     0.199 HD
ENDROOT
BRANCH   1   5
ATOM      5  C   UNL     1      -7.151  58.201  33.016  1.00  0.00     0.070 A 
ATOM      6  N   UNL     1      -9.600  61.009  33.355  1.00  0.00    -0.334 N 
ATOM      7  C   UNL     1     -10.840  60.719  33.846  1.00  0.00     0.200 A 
ATOM      8  C   UNL     1      -8.869  59.846  33.320  1.00  0.00     0.072 A 
ATOM      9  N   UNL     1     -10.959  59.443  34.125  1.00  0.00    -0.234 NA
ATOM     10  C   UNL     1      -7.565  59.548  32.913  1.00  0.00     0.045 A 
ATOM     11  C   UNL     1      -9.746  58.876  33.799  1.00  0.00     0.126 A 
ATOM     12  C   UNL     1      -9.314  57.537  33.875  1.00  0.00     0.175 A 
ATOM     13  C   UNL     1      -8.010  57.174  33.484  1.00  0.00     0.090 A 
ATOM     14  C   UNL     1      -9.150  62.315  32.941  1.00  0.00     0.151 C 
ATOM     15  F   UNL     1     -10.189  56.603  34.281  1.00  0.00    -0.202 F 
BRANCH  13  16
ATOM     16  N   UNL     1      -7.514  55.852  33.601  1.00  0.00    -0.351 N 
ATOM     17  H   UNL     1      -6.720  55.779  34.252  1.00  0.00     0.167 HD
BRANCH  16  18
ATOM     18  C   UNL     1      -7.832  54.628  32.981  1.00  0.00     0.057 A 
ATOM     19  C   UNL     1      -7.495  54.352  31.649  1.00  0.00     0.029 A 
ATOM     20  C   UNL     1      -8.494  53.615  33.709  1.00  0.00     0.065 A 
ATOM     21  C   UNL     1      -7.803  53.119  31.063  1.00  0.00     0.018 A 
ATOM     22  C   UNL     1      -8.805  52.381  33.131  1.00  0.00     0.038 A 
ATOM     23  C   UNL     1      -8.455  52.140  31.807  1.00  0.00     0.019 A 
ATOM     24  Cl  UNL     1      -8.951  53.870  35.360  1.00  0.00    -0.082 Cl
ATOM     25  Br  UNL     1      -8.872  50.478  31.010  1.00  0.00    -0.051 Br
ENDBRANCH  16  18
ENDBRANCH  13  16
ENDBRANCH   1   5
BRANCH   3  26
ATOM     26  O   UNL     1      -3.559  57.426  33.236  1.00  0.00    -0.271 OA
BRANCH  26  27
ATOM     27  C   UNL     1      -3.665  56.066  33.679  1.00  0.00     0.222 C 
BRANCH  27  28
ATOM     28  C   UNL     1      -3.008  55.174  32.634  1.00  0.00     0.187 C 
BRANCH  28  29
ATOM     29  O   UNL     1      -2.957  55.846  31.375  1.00  0.00    -0.394 OA
ATOM     30  H   UNL     1      -2.505  56.694  31.545  1.00  0.00     0.210 HD
ENDBRANCH  28  29
ENDBRANCH  27  28
ENDBRANCH  26  27
ENDBRANCH   3  26
TORSDOF 7
ENDMDL
MODEL 20
REMARK VINA RESULT:    -6.954      3.426      5.090
REMARK INTER + INTRA:         -11.188
REMARK INTER:                  -9.829
REMARK INTRA:                  -1.359
REMARK UNBOUND:                -1.591
REMARK SMILES Cn1cnc2c(F)c(Nc3ccc(Br)cc3Cl)c(C(=O)NOCCO)cc21
REMARK SMILES IDX 19 1 20 2 21 3 18 5 2 6 3 7 27 8 4 9 26 10 5 11 6 12 8 13
REMARK SMILES IDX 1 14 7 15 9 16 10 18 11 19 16 20 12 21 15 22 13 23 17 24
REMARK SMILES IDX 14 25 22 26 23 27 24 28 25 29
REMARK H PARENT 21 4 9 17 25 30
ROOT
ATOM      1  C   UNL     1      -3.921  54.931  32.701  1.00  0.00     0.277 C 
ATOM      2  O   UNL     1      -3.669  54.333  33.742  1.00  0.00    -0.267 OA
ATOM      3  N   UNL     1      -3.147  55.942  32.159  1.00  0.00    -0.231 N 
ATOM      4  H   UNL     1      -3.611  56.647  31.595  1.00  0.00     0.199 HD
ENDROOT
BRANCH   1   5
ATOM      5  C   UNL     1      -5.158  54.598  31.937  1.00  0.00     0.070 A 
ATOM      6  N   UNL     1      -6.478  52.643  29.033  1.00  0.00    -0.334 N 
ATOM      7  C   UNL     1      -7.816  52.709  28.775  1.00  0.00     0.200 A 
ATOM      8  C   UNL     1      -6.212  53.431  30.127  1.00  0.00     0.072 A 
ATOM      9  N   UNL     1      -8.433  53.483  29.635  1.00  0.00    -0.234 NA
ATOM     10  C   UNL     1      -5.040  53.732  30.828  1.00  0.00     0.045 A 
ATOM     11  C   UNL     1      -7.456  53.940  30.492  1.00  0.00     0.126 A 
ATOM     12  C   UNL     1      -7.549  54.787  31.613  1.00  0.00     0.175 A 
ATOM     13  C   UNL     1      -6.404  55.132  32.358  1.00  0.00     0.090 A 
ATOM     14  C   UNL     1      -5.518  51.870  28.283  1.00  0.00     0.151 C 
ATOM     15  F   UNL     1      -8.763  55.222  31.990  1.00  0.00    -0.202 F 
BRANCH  13  16
ATOM     16  N   UNL     1      -6.442  56.028  33.454  1.00  0.00    -0.351 N 
ATOM     17  H   UNL     1      -5.909  55.690  34.268  1.00  0.00     0.167 HD
BRANCH  16  18
ATOM     18  C   UNL     1      -7.094  57.254  33.695  1.00  0.00     0.057 A 
ATOM     19  C   UNL     1      -6.710  58.444  33.064  1.00  0.00     0.029 A 
ATOM     20  C   UNL     1      -8.192  57.310  34.582  1.00  0.00     0.065 A 
ATOM     21  C   UNL     1      -7.389  59.644  33.303  1.00  0.00     0.018 A 
ATOM     22  C   UNL     1      -8.875  58.505  34.827  1.00  0.00     0.038 A 
ATOM     23  C   UNL     1      -8.468  59.668  34.182  1.00  0.00     0.019 A 
ATOM     24  Cl  UNL     1      -8.733  55.888  35.408  1.00  0.00    -0.082 Cl
ATOM     25  Br  UNL     1      -9.380  61.292  34.505  1.00  0.00    -0.051 Br
ENDBRANCH  16  18
ENDBRANCH  13  16
ENDBRANCH   1   5
BRANCH   3  26
ATOM     26  O   UNL     1      -2.204  56.476  33.077  1.00  0.00    -0.271 OA
BRANCH  26  27
ATOM     27  C   UNL     1      -2.731  57.699  33.610  1.00  0.00     0.222 C 
BRANCH  27  28
ATOM     28  C   UNL     1      -2.884  57.534  35.116  1.00  0.00     0.187 C 
BRANCH  28  29
ATOM     29  O   UNL     1      -2.894  58.812  35.753  1.00  0.00    -0.394 OA
ATOM     30  H   UNL     1      -1.980  59.146  35.691  1.00  0.00     0.210 HD
ENDBRANCH  28  29
ENDBRANCH  27  28
ENDBRANCH  26  27
ENDBRANCH   3  26
TORSDOF 7
ENDMDL
