MODEL 1
REMARK VINA RESULT:    -9.081      0.000      0.000
REMARK INTER + INTRA:         -11.349
REMARK INTER:                 -11.735
REMARK INTRA:                   0.386
REMARK UNBOUND:                 0.386
REMARK SMILES CC(=O)Nc1cccc(-n2c(=O)n(C3CC3)c(=O)c3c(Nc4ccc(I)cc4F)n(C)c(=O)c(C)c32)c1
REMARK SMILES IDX 10 1 11 2 12 3 13 4 17 5 18 6 19 7 20 8 30 9 31 10 32 11
REMARK SMILES IDX 33 12 34 13 35 14 36 15 9 16 5 17 6 18 37 19 7 20 8 21 4 22
REMARK SMILES IDX 2 23 3 24 1 25 14 27 15 28 16 29 21 30 22 32 23 33 28 34
REMARK SMILES IDX 24 35 27 36 25 37 29 38 26 39
REMARK H PARENT 4 26 21 31
ROOT
ATOM      1  N   UNL     1      -7.960  53.699  31.193  1.00  0.00    -0.261 N 
ATOM      2  C   UNL     1      -9.079  53.500  32.035  1.00  0.00     0.336 C 
ATOM      3  O   UNL     1     -10.157  53.037  31.646  1.00  0.00    -0.247 OA
ATOM      4  N   UNL     1      -8.920  53.881  33.368  1.00  0.00    -0.256 N 
ATOM      5  C   UNL     1      -8.089  54.923  33.754  1.00  0.00     0.268 C 
ATOM      6  O   UNL     1      -8.234  55.499  34.833  1.00  0.00    -0.268 OA
ATOM      7  C   UNL     1      -6.979  55.240  32.799  1.00  0.00     0.106 C 
ATOM      8  C   UNL     1      -6.111  56.259  33.038  1.00  0.00     0.128 C 
ATOM      9  N   UNL     1      -4.918  56.275  32.305  1.00  0.00    -0.297 N 
ATOM     10  C   UNL     1      -3.953  57.351  32.490  1.00  0.00     0.155 C 
ATOM     11  C   UNL     1      -4.527  55.226  31.481  1.00  0.00     0.256 C 
ATOM     12  O   UNL     1      -3.390  55.112  31.025  1.00  0.00    -0.269 OA
ATOM     13  C   UNL     1      -5.580  54.234  31.106  1.00  0.00     0.040 C 
ATOM     14  C   UNL     1      -5.107  53.194  30.127  1.00  0.00     0.053 C 
ATOM     15  C   UNL     1      -6.809  54.362  31.654  1.00  0.00     0.076 C 
ENDROOT
BRANCH   1  16
ATOM     16  C   UNL     1      -8.164  53.405  29.787  1.00  0.00     0.053 A 
ATOM     17  C   UNL     1      -9.196  53.966  27.640  1.00  0.00     0.043 A 
ATOM     18  C   UNL     1      -8.559  52.865  27.060  1.00  0.00     0.026 A 
ATOM     19  C   UNL     1      -9.003  54.221  29.002  1.00  0.00     0.053 A 
ATOM     20  C   UNL     1      -7.739  52.035  27.825  1.00  0.00     0.004 A 
ATOM     21  C   UNL     1      -7.543  52.305  29.179  1.00  0.00     0.027 A 
BRANCH  17  22
ATOM     22  N   UNL     1      -9.999  54.761  26.795  1.00  0.00    -0.326 N 
ATOM     23  C   UNL     1      -9.687  55.230  25.531  1.00  0.00     0.221 C 
ATOM     24  O   UNL     1      -8.646  55.048  24.911  1.00  0.00    -0.275 OA
ATOM     25  C   UNL     1     -10.818  56.031  24.934  1.00  0.00     0.114 C 
ATOM     26  H   UNL     1     -10.918  54.997  27.151  1.00  0.00     0.169 HD
ENDBRANCH  17  22
ENDBRANCH   1  16
BRANCH   4  27
ATOM     27  C   UNL     1      -9.972  53.496  34.299  1.00  0.00     0.096 C 
ATOM     28  C   UNL     1      -9.663  53.169  35.741  1.00  0.00     0.028 C 
ATOM     29  C   UNL     1     -10.096  52.080  34.812  1.00  0.00     0.028 C 
ENDBRANCH   4  27
BRANCH   8  30
ATOM     30  N   UNL     1      -6.310  57.216  34.027  1.00  0.00    -0.338 N 
ATOM     31  H   UNL     1      -5.474  57.425  34.558  1.00  0.00     0.168 HD
BRANCH  30  32
ATOM     32  C   UNL     1      -7.143  58.361  33.908  1.00  0.00     0.076 A 
ATOM     33  C   UNL     1      -7.189  59.003  32.659  1.00  0.00     0.030 A 
ATOM     34  C   UNL     1      -7.840  58.961  34.971  1.00  0.00     0.147 A 
ATOM     35  C   UNL     1      -7.936  60.173  32.471  1.00  0.00     0.017 A 
ATOM     36  C   UNL     1      -8.588  60.125  34.795  1.00  0.00     0.056 A 
ATOM     37  C   UNL     1      -8.634  60.727  33.541  1.00  0.00     0.016 A 
ATOM     38  F   UNL     1      -7.829  58.419  36.199  1.00  0.00    -0.205 F 
ATOM     39  I   UNL     1      -9.742  62.462  33.267  1.00  0.00    -0.044 I 
ENDBRANCH  30  32
ENDBRANCH   8  30
TORSDOF 5
ENDMDL
MODEL 2
REMARK VINA RESULT:    -9.075      1.251      1.478
REMARK INTER + INTRA:         -11.341
REMARK INTER:                 -10.699
REMARK INTRA:                  -0.642
REMARK UNBOUND:                 0.386
REMARK SMILES CC(=O)Nc1cccc(-n2c(=O)n(C3CC3)c(=O)c3c(Nc4ccc(I)cc4F)n(C)c(=O)c(C)c32)c1
REMARK SMILES IDX 10 1 11 2 12 3 13 4 17 5 18 6 19 7 20 8 30 9 31 10 32 11
REMARK SMILES IDX 33 12 34 13 35 14 36 15 9 16 5 17 6 18 37 19 7 20 8 21 4 22
REMARK SMILES IDX 2 23 3 24 1 25 14 27 15 28 16 29 21 30 22 32 23 33 28 34
REMARK SMILES IDX 24 35 27 36 25 37 29 38 26 39
REMARK H PARENT 4 26 21 31
ROOT
ATOM      1  N   UNL     1      -8.670  53.663  32.516  1.00  0.00    -0.261 N 
ATOM      2  C   UNL     1      -9.589  53.690  33.591  1.00  0.00     0.336 C 
ATOM      3  O   UNL     1     -10.705  53.160  33.552  1.00  0.00    -0.247 OA
ATOM      4  N   UNL     1      -9.180  54.380  34.731  1.00  0.00    -0.256 N 
ATOM      5  C   UNL     1      -8.328  55.475  34.678  1.00  0.00     0.268 C 
ATOM      6  O   UNL     1      -8.275  56.297  35.593  1.00  0.00    -0.268 OA
ATOM      7  C   UNL     1      -7.445  55.535  33.469  1.00  0.00     0.106 C 
ATOM      8  C   UNL     1      -6.584  56.570  33.275  1.00  0.00     0.128 C 
ATOM      9  N   UNL     1      -5.564  56.392  32.332  1.00  0.00    -0.297 N 
ATOM     10  C   UNL     1      -4.622  57.469  32.052  1.00  0.00     0.155 C 
ATOM     11  C   UNL     1      -5.308  55.169  31.723  1.00  0.00     0.256 C 
ATOM     12  O   UNL     1      -4.282  54.933  31.086  1.00  0.00    -0.269 OA
ATOM     13  C   UNL     1      -6.377  54.130  31.820  1.00  0.00     0.040 C 
ATOM     14  C   UNL     1      -6.072  52.877  31.044  1.00  0.00     0.053 C 
ATOM     15  C   UNL     1      -7.475  54.403  32.559  1.00  0.00     0.076 C 
ENDROOT
BRANCH   1  16
ATOM     16  C   UNL     1      -9.141  53.039  31.293  1.00  0.00     0.053 A 
ATOM     17  C   UNL     1      -9.987  53.246  29.007  1.00  0.00     0.043 A 
ATOM     18  C   UNL     1     -10.039  51.852  28.913  1.00  0.00     0.026 A 
ATOM     19  C   UNL     1      -9.550  53.829  30.200  1.00  0.00     0.053 A 
ATOM     20  C   UNL     1      -9.656  51.054  29.991  1.00  0.00     0.004 A 
ATOM     21  C   UNL     1      -9.210  51.644  31.172  1.00  0.00     0.027 A 
BRANCH  17  22
ATOM     22  N   UNL     1     -10.382  53.981  27.869  1.00  0.00    -0.326 N 
ATOM     23  C   UNL     1      -9.617  54.291  26.757  1.00  0.00     0.221 C 
ATOM     24  O   UNL     1      -8.446  53.989  26.558  1.00  0.00    -0.275 OA
ATOM     25  C   UNL     1     -10.402  55.076  25.736  1.00  0.00     0.114 C 
ATOM     26  H   UNL     1     -11.342  54.301  27.859  1.00  0.00     0.169 HD
ENDBRANCH  17  22
ENDBRANCH   1  16
BRANCH   4  27
ATOM     27  C   UNL     1     -10.009  54.247  35.922  1.00  0.00     0.096 C 
ATOM     28  C   UNL     1      -9.487  54.626  37.287  1.00  0.00     0.028 C 
ATOM     29  C   UNL     1      -9.734  53.187  36.963  1.00  0.00     0.028 C 
ENDBRANCH   4  27
BRANCH   8  30
ATOM     30  N   UNL     1      -6.617  57.742  34.024  1.00  0.00    -0.338 N 
ATOM     31  H   UNL     1      -5.697  58.083  34.275  1.00  0.00     0.168 HD
BRANCH  30  32
ATOM     32  C   UNL     1      -7.529  58.814  33.834  1.00  0.00     0.076 A 
ATOM     33  C   UNL     1      -7.747  59.257  32.519  1.00  0.00     0.030 A 
ATOM     34  C   UNL     1      -8.148  59.535  34.871  1.00  0.00     0.147 A 
ATOM     35  C   UNL     1      -8.582  60.347  32.248  1.00  0.00     0.017 A 
ATOM     36  C   UNL     1      -8.983  60.622  34.613  1.00  0.00     0.056 A 
ATOM     37  C   UNL     1      -9.198  61.023  33.299  1.00  0.00     0.016 A 
ATOM     38  F   UNL     1      -7.973  59.187  36.155  1.00  0.00    -0.205 F 
ATOM     39  I   UNL     1     -10.438  62.642  32.902  1.00  0.00    -0.044 I 
ENDBRANCH  30  32
ENDBRANCH   8  30
TORSDOF 5
ENDMDL
MODEL 3
REMARK VINA RESULT:    -9.031      9.428     11.920
REMARK INTER + INTRA:         -11.284
REMARK INTER:                 -11.850
REMARK INTRA:                   0.566
REMARK UNBOUND:                 0.386
REMARK SMILES CC(=O)Nc1cccc(-n2c(=O)n(C3CC3)c(=O)c3c(Nc4ccc(I)cc4F)n(C)c(=O)c(C)c32)c1
REMARK SMILES IDX 10 1 11 2 12 3 13 4 17 5 18 6 19 7 20 8 30 9 31 10 32 11
REMARK SMILES IDX 33 12 34 13 35 14 36 15 9 16 5 17 6 18 37 19 7 20 8 21 4 22
REMARK SMILES IDX 2 23 3 24 1 25 14 27 15 28 16 29 21 30 22 32 23 33 28 34
REMARK SMILES IDX 24 35 27 36 25 37 29 38 26 39
REMARK H PARENT 4 26 21 31
ROOT
ATOM      1  N   UNL     1     -12.737  65.321  33.343  1.00  0.00    -0.261 N 
ATOM      2  C   UNL     1     -13.675  66.344  33.617  1.00  0.00     0.336 C 
ATOM      3  O   UNL     1     -14.880  66.256  33.359  1.00  0.00    -0.247 OA
ATOM      4  N   UNL     1     -13.165  67.507  34.192  1.00  0.00    -0.256 N 
ATOM      5  C   UNL     1     -11.876  67.962  33.945  1.00  0.00     0.268 C 
ATOM      6  O   UNL     1     -11.561  69.139  34.124  1.00  0.00    -0.268 OA
ATOM      7  C   UNL     1     -10.902  66.908  33.514  1.00  0.00     0.106 C 
ATOM      8  C   UNL     1      -9.614  67.221  33.208  1.00  0.00     0.128 C 
ATOM      9  N   UNL     1      -8.690  66.169  33.156  1.00  0.00    -0.297 N 
ATOM     10  C   UNL     1      -7.299  66.427  32.808  1.00  0.00     0.155 C 
ATOM     11  C   UNL     1      -9.001  64.874  33.556  1.00  0.00     0.256 C 
ATOM     12  O   UNL     1      -8.153  64.004  33.747  1.00  0.00    -0.269 OA
ATOM     13  C   UNL     1     -10.451  64.542  33.699  1.00  0.00     0.040 C 
ATOM     14  C   UNL     1     -10.708  63.097  34.027  1.00  0.00     0.053 C 
ATOM     15  C   UNL     1     -11.358  65.529  33.523  1.00  0.00     0.076 C 
ENDROOT
BRANCH   1  16
ATOM     16  C   UNL     1     -13.252  64.158  32.645  1.00  0.00     0.053 A 
ATOM     17  C   UNL     1     -13.467  62.854  30.586  1.00  0.00     0.043 A 
ATOM     18  C   UNL     1     -14.225  61.906  31.280  1.00  0.00     0.026 A 
ATOM     19  C   UNL     1     -12.997  63.979  31.271  1.00  0.00     0.053 A 
ATOM     20  C   UNL     1     -14.504  62.076  32.636  1.00  0.00     0.004 A 
ATOM     21  C   UNL     1     -14.020  63.194  33.313  1.00  0.00     0.027 A 
BRANCH  17  22
ATOM     22  N   UNL     1     -13.221  62.603  29.219  1.00  0.00    -0.326 N 
ATOM     23  C   UNL     1     -13.541  63.412  28.143  1.00  0.00     0.221 C 
ATOM     24  O   UNL     1     -14.106  64.498  28.177  1.00  0.00    -0.275 OA
ATOM     25  C   UNL     1     -13.094  62.809  26.834  1.00  0.00     0.114 C 
ATOM     26  H   UNL     1     -12.738  61.739  29.007  1.00  0.00     0.169 HD
ENDBRANCH  17  22
ENDBRANCH   1  16
BRANCH   4  27
ATOM     27  C   UNL     1     -14.127  68.487  34.677  1.00  0.00     0.096 C 
ATOM     28  C   UNL     1     -13.827  69.355  35.877  1.00  0.00     0.028 C 
ATOM     29  C   UNL     1     -14.871  68.288  35.978  1.00  0.00     0.028 C 
ENDBRANCH   4  27
BRANCH   8  30
ATOM     30  N   UNL     1      -9.164  68.525  33.038  1.00  0.00    -0.338 N 
ATOM     31  H   UNL     1      -9.901  69.216  33.103  1.00  0.00     0.168 HD
BRANCH  30  32
ATOM     32  C   UNL     1      -7.933  69.040  33.524  1.00  0.00     0.076 A 
ATOM     33  C   UNL     1      -7.093  69.691  32.605  1.00  0.00     0.030 A 
ATOM     34  C   UNL     1      -7.443  68.855  34.829  1.00  0.00     0.147 A 
ATOM     35  C   UNL     1      -5.835  70.175  32.986  1.00  0.00     0.017 A 
ATOM     36  C   UNL     1      -6.193  69.333  35.220  1.00  0.00     0.056 A 
ATOM     37  C   UNL     1      -5.392  69.994  34.294  1.00  0.00     0.016 A 
ATOM     38  F   UNL     1      -8.177  68.225  35.759  1.00  0.00    -0.205 F 
ATOM     39  I   UNL     1      -3.526  70.708  34.863  1.00  0.00    -0.044 I 
ENDBRANCH  30  32
ENDBRANCH   8  30
TORSDOF 5
ENDMDL
MODEL 4
REMARK VINA RESULT:    -8.919      3.004      5.022
REMARK INTER + INTRA:         -11.140
REMARK INTER:                 -11.453
REMARK INTRA:                   0.313
REMARK UNBOUND:                 0.386
REMARK SMILES CC(=O)Nc1cccc(-n2c(=O)n(C3CC3)c(=O)c3c(Nc4ccc(I)cc4F)n(C)c(=O)c(C)c32)c1
REMARK SMILES IDX 10 1 11 2 12 3 13 4 17 5 18 6 19 7 20 8 30 9 31 10 32 11
REMARK SMILES IDX 33 12 34 13 35 14 36 15 9 16 5 17 6 18 37 19 7 20 8 21 4 22
REMARK SMILES IDX 2 23 3 24 1 25 14 27 15 28 16 29 21 30 22 32 23 33 28 34
REMARK SMILES IDX 24 35 27 36 25 37 29 38 26 39
REMARK H PARENT 4 26 21 31
ROOT
ATOM      1  N   UNL     1      -6.917  54.888  32.678  1.00  0.00    -0.261 N 
ATOM      2  C   UNL     1      -5.603  54.964  33.195  1.00  0.00     0.336 C 
ATOM      3  O   UNL     1      -4.852  53.988  33.306  1.00  0.00    -0.247 OA
ATOM      4  N   UNL     1      -5.177  56.226  33.609  1.00  0.00    -0.256 N 
ATOM      5  C   UNL     1      -6.048  57.180  34.115  1.00  0.00     0.268 C 
ATOM      6  O   UNL     1      -5.650  58.110  34.819  1.00  0.00    -0.268 OA
ATOM      7  C   UNL     1      -7.477  57.028  33.689  1.00  0.00     0.106 C 
ATOM      8  C   UNL     1      -8.441  57.876  34.137  1.00  0.00     0.128 C 
ATOM      9  N   UNL     1      -9.657  57.894  33.442  1.00  0.00    -0.297 N 
ATOM     10  C   UNL     1     -10.745  58.758  33.882  1.00  0.00     0.155 C 
ATOM     11  C   UNL     1      -9.849  57.215  32.244  1.00  0.00     0.256 C 
ATOM     12  O   UNL     1     -10.812  57.410  31.504  1.00  0.00    -0.269 OA
ATOM     13  C   UNL     1      -8.846  56.163  31.896  1.00  0.00     0.040 C 
ATOM     14  C   UNL     1      -9.183  55.401  30.644  1.00  0.00     0.053 C 
ATOM     15  C   UNL     1      -7.778  56.000  32.708  1.00  0.00     0.076 C 
ENDROOT
BRANCH   1  16
ATOM     16  C   UNL     1      -7.395  53.557  32.351  1.00  0.00     0.053 A 
ATOM     17  C   UNL     1      -7.221  51.522  31.005  1.00  0.00     0.043 A 
ATOM     18  C   UNL     1      -8.294  50.975  31.715  1.00  0.00     0.026 A 
ATOM     19  C   UNL     1      -6.788  52.814  31.321  1.00  0.00     0.053 A 
ATOM     20  C   UNL     1      -8.920  51.704  32.726  1.00  0.00     0.004 A 
ATOM     21  C   UNL     1      -8.473  52.985  33.042  1.00  0.00     0.027 A 
BRANCH  17  22
ATOM     22  N   UNL     1      -6.636  50.717  30.005  1.00  0.00    -0.326 N 
ATOM     23  C   UNL     1      -5.435  50.924  29.349  1.00  0.00     0.221 C 
ATOM     24  O   UNL     1      -4.656  51.856  29.512  1.00  0.00    -0.275 OA
ATOM     25  C   UNL     1      -5.139  49.828  28.357  1.00  0.00     0.114 C 
ATOM     26  H   UNL     1      -7.149  49.881  29.753  1.00  0.00     0.169 HD
ENDBRANCH  17  22
ENDBRANCH   1  16
BRANCH   4  27
ATOM     27  C   UNL     1      -3.768  56.375  33.945  1.00  0.00     0.096 C 
ATOM     28  C   UNL     1      -3.005  57.630  33.589  1.00  0.00     0.028 C 
ATOM     29  C   UNL     1      -2.693  56.349  32.882  1.00  0.00     0.028 C 
ENDBRANCH   4  27
BRANCH   8  30
ATOM     30  N   UNL     1      -8.244  58.775  35.180  1.00  0.00    -0.338 N 
ATOM     31  H   UNL     1      -7.503  58.499  35.812  1.00  0.00     0.168 HD
BRANCH  30  32
ATOM     32  C   UNL     1      -8.331  60.188  35.074  1.00  0.00     0.076 A 
ATOM     33  C   UNL     1      -8.808  60.895  36.191  1.00  0.00     0.030 A 
ATOM     34  C   UNL     1      -8.079  60.924  33.903  1.00  0.00     0.147 A 
ATOM     35  C   UNL     1      -8.983  62.284  36.151  1.00  0.00     0.017 A 
ATOM     36  C   UNL     1      -8.248  62.307  33.852  1.00  0.00     0.056 A 
ATOM     37  C   UNL     1      -8.699  62.984  34.980  1.00  0.00     0.016 A 
ATOM     38  F   UNL     1      -7.640  60.318  32.788  1.00  0.00    -0.205 F 
ATOM     39  I   UNL     1      -8.959  65.043  34.917  1.00  0.00    -0.044 I 
ENDBRANCH  30  32
ENDBRANCH   8  30
TORSDOF 5
ENDMDL
MODEL 5
REMARK VINA RESULT:    -8.856      5.911      9.226
REMARK INTER + INTRA:         -11.059
REMARK INTER:                 -11.243
REMARK INTRA:                   0.185
REMARK UNBOUND:                 0.386
REMARK SMILES CC(=O)Nc1cccc(-n2c(=O)n(C3CC3)c(=O)c3c(Nc4ccc(I)cc4F)n(C)c(=O)c(C)c32)c1
REMARK SMILES IDX 10 1 11 2 12 3 13 4 17 5 18 6 19 7 20 8 30 9 31 10 32 11
REMARK SMILES IDX 33 12 34 13 35 14 36 15 9 16 5 17 6 18 37 19 7 20 8 21 4 22
REMARK SMILES IDX 2 23 3 24 1 25 14 27 15 28 16 29 21 30 22 32 23 33 28 34
REMARK SMILES IDX 24 35 27 36 25 37 29 38 26 39
REMARK H PARENT 4 26 21 31
ROOT
ATOM      1  N   UNL     1     -10.739  61.418  33.762  1.00  0.00    -0.261 N 
ATOM      2  C   UNL     1     -11.967  61.691  33.116  1.00  0.00     0.336 C 
ATOM      3  O   UNL     1     -12.725  60.816  32.685  1.00  0.00    -0.247 OA
ATOM      4  N   UNL     1     -12.293  63.038  32.960  1.00  0.00    -0.256 N 
ATOM      5  C   UNL     1     -11.331  64.027  32.806  1.00  0.00     0.268 C 
ATOM      6  O   UNL     1     -11.600  65.116  32.297  1.00  0.00    -0.268 OA
ATOM      7  C   UNL     1      -9.980  63.694  33.362  1.00  0.00     0.106 C 
ATOM      8  C   UNL     1      -8.937  64.560  33.251  1.00  0.00     0.128 C 
ATOM      9  N   UNL     1      -7.828  64.343  34.079  1.00  0.00    -0.297 N 
ATOM     10  C   UNL     1      -6.664  65.215  33.994  1.00  0.00     0.155 C 
ATOM     11  C   UNL     1      -7.823  63.397  35.097  1.00  0.00     0.256 C 
ATOM     12  O   UNL     1      -6.966  63.357  35.978  1.00  0.00    -0.269 OA
ATOM     13  C   UNL     1      -8.897  62.358  35.059  1.00  0.00     0.040 C 
ATOM     14  C   UNL     1      -8.759  61.309  36.129  1.00  0.00     0.053 C 
ATOM     15  C   UNL     1      -9.848  62.451  34.103  1.00  0.00     0.076 C 
ENDROOT
BRANCH   1  16
ATOM     16  C   UNL     1     -10.352  60.020  33.824  1.00  0.00     0.053 A 
ATOM     17  C   UNL     1      -8.850  58.213  33.145  1.00  0.00     0.043 A 
ATOM     18  C   UNL     1      -9.576  57.325  33.944  1.00  0.00     0.026 A 
ATOM     19  C   UNL     1      -9.251  59.551  33.081  1.00  0.00     0.053 A 
ATOM     20  C   UNL     1     -10.680  57.767  34.673  1.00  0.00     0.004 A 
ATOM     21  C   UNL     1     -11.064  59.106  34.613  1.00  0.00     0.027 A 
BRANCH  17  22
ATOM     22  N   UNL     1      -7.741  57.688  32.448  1.00  0.00    -0.326 N 
ATOM     23  C   UNL     1      -6.400  57.844  32.756  1.00  0.00     0.221 C 
ATOM     24  O   UNL     1      -5.926  58.477  33.691  1.00  0.00    -0.275 OA
ATOM     25  C   UNL     1      -5.511  57.111  31.783  1.00  0.00     0.114 C 
ATOM     26  H   UNL     1      -7.955  57.116  31.640  1.00  0.00     0.169 HD
ENDBRANCH  17  22
ENDBRANCH   1  16
BRANCH   4  27
ATOM     27  C   UNL     1     -13.637  63.348  32.494  1.00  0.00     0.096 C 
ATOM     28  C   UNL     1     -14.380  64.565  32.993  1.00  0.00     0.028 C 
ATOM     29  C   UNL     1     -14.841  63.199  33.395  1.00  0.00     0.028 C 
ENDBRANCH   4  27
BRANCH   8  30
ATOM     30  N   UNL     1      -8.961  65.684  32.432  1.00  0.00    -0.338 N 
ATOM     31  H   UNL     1      -9.713  65.670  31.754  1.00  0.00     0.168 HD
BRANCH  30  32
ATOM     32  C   UNL     1      -8.668  67.010  32.848  1.00  0.00     0.076 A 
ATOM     33  C   UNL     1      -7.471  67.585  32.389  1.00  0.00     0.030 A 
ATOM     34  C   UNL     1      -9.430  67.751  33.768  1.00  0.00     0.147 A 
ATOM     35  C   UNL     1      -7.075  68.863  32.799  1.00  0.00     0.017 A 
ATOM     36  C   UNL     1      -9.046  69.026  34.183  1.00  0.00     0.056 A 
ATOM     37  C   UNL     1      -7.867  69.579  33.694  1.00  0.00     0.016 A 
ATOM     38  F   UNL     1     -10.576  67.262  34.268  1.00  0.00    -0.205 F 
ATOM     39  I   UNL     1      -7.282  71.476  34.306  1.00  0.00    -0.044 I 
ENDBRANCH  30  32
ENDBRANCH   8  30
TORSDOF 5
ENDMDL
MODEL 6
REMARK VINA RESULT:    -8.792      3.310      7.513
REMARK INTER + INTRA:         -10.975
REMARK INTER:                 -10.225
REMARK INTRA:                  -0.750
REMARK UNBOUND:                 0.386
REMARK SMILES CC(=O)Nc1cccc(-n2c(=O)n(C3CC3)c(=O)c3c(Nc4ccc(I)cc4F)n(C)c(=O)c(C)c32)c1
REMARK SMILES IDX 10 1 11 2 12 3 13 4 17 5 18 6 19 7 20 8 30 9 31 10 32 11
REMARK SMILES IDX 33 12 34 13 35 14 36 15 9 16 5 17 6 18 37 19 7 20 8 21 4 22
REMARK SMILES IDX 2 23 3 24 1 25 14 27 15 28 16 29 21 30 22 32 23 33 28 34
REMARK SMILES IDX 24 35 27 36 25 37 29 38 26 39
REMARK H PARENT 4 26 21 31
ROOT
ATOM      1  N   UNL     1      -7.292  56.491  33.853  1.00  0.00    -0.261 N 
ATOM      2  C   UNL     1      -6.133  56.903  33.154  1.00  0.00     0.336 C 
ATOM      3  O   UNL     1      -5.747  58.076  33.097  1.00  0.00    -0.247 OA
ATOM      4  N   UNL     1      -5.427  55.900  32.491  1.00  0.00    -0.256 N 
ATOM      5  C   UNL     1      -6.043  54.774  31.964  1.00  0.00     0.268 C 
ATOM      6  O   UNL     1      -5.516  54.105  31.074  1.00  0.00    -0.268 OA
ATOM      7  C   UNL     1      -7.348  54.406  32.601  1.00  0.00     0.106 C 
ATOM      8  C   UNL     1      -8.074  53.343  32.161  1.00  0.00     0.128 C 
ATOM      9  N   UNL     1      -9.080  52.855  33.006  1.00  0.00    -0.297 N 
ATOM     10  C   UNL     1      -9.915  51.736  32.588  1.00  0.00     0.155 C 
ATOM     11  C   UNL     1      -9.249  53.303  34.311  1.00  0.00     0.256 C 
ATOM     12  O   UNL     1      -9.956  52.727  35.137  1.00  0.00    -0.269 OA
ATOM     13  C   UNL     1      -8.567  54.581  34.680  1.00  0.00     0.040 C 
ATOM     14  C   UNL     1      -8.887  55.054  36.072  1.00  0.00     0.053 C 
ATOM     15  C   UNL     1      -7.765  55.169  33.765  1.00  0.00     0.076 C 
ENDROOT
BRANCH   1  16
ATOM     16  C   UNL     1      -8.084  57.550  34.449  1.00  0.00     0.053 A 
ATOM     17  C   UNL     1     -10.144  58.870  34.508  1.00  0.00     0.043 A 
ATOM     18  C   UNL     1      -9.640  59.584  35.599  1.00  0.00     0.026 A 
ATOM     19  C   UNL     1      -9.357  57.867  33.934  1.00  0.00     0.053 A 
ATOM     20  C   UNL     1      -8.374  59.298  36.112  1.00  0.00     0.004 A 
ATOM     21  C   UNL     1      -7.603  58.287  35.541  1.00  0.00     0.027 A 
BRANCH  17  22
ATOM     22  N   UNL     1     -11.435  59.214  34.057  1.00  0.00    -0.326 N 
ATOM     23  C   UNL     1     -11.772  60.169  33.113  1.00  0.00     0.221 C 
ATOM     24  O   UNL     1     -11.007  60.901  32.496  1.00  0.00    -0.275 OA
ATOM     25  C   UNL     1     -13.261  60.230  32.881  1.00  0.00     0.114 C 
ATOM     26  H   UNL     1     -12.200  58.687  34.459  1.00  0.00     0.169 HD
ENDBRANCH  17  22
ENDBRANCH   1  16
BRANCH   4  27
ATOM     27  C   UNL     1      -4.124  56.255  31.945  1.00  0.00     0.096 C 
ATOM     28  C   UNL     1      -2.959  55.295  32.007  1.00  0.00     0.028 C 
ATOM     29  C   UNL     1      -2.940  56.537  32.841  1.00  0.00     0.028 C 
ENDBRANCH   4  27
BRANCH   8  30
ATOM     30  N   UNL     1      -7.806  52.674  30.972  1.00  0.00    -0.338 N 
ATOM     31  H   UNL     1      -7.931  51.672  31.039  1.00  0.00     0.168 HD
BRANCH  30  32
ATOM     32  C   UNL     1      -8.126  53.147  29.672  1.00  0.00     0.076 A 
ATOM     33  C   UNL     1      -9.233  54.004  29.547  1.00  0.00     0.030 A 
ATOM     34  C   UNL     1      -7.487  52.739  28.488  1.00  0.00     0.147 A 
ATOM     35  C   UNL     1      -9.655  54.468  28.295  1.00  0.00     0.017 A 
ATOM     36  C   UNL     1      -7.899  53.195  27.236  1.00  0.00     0.056 A 
ATOM     37  C   UNL     1      -8.983  54.061  27.145  1.00  0.00     0.016 A 
ATOM     38  F   UNL     1      -6.436  51.906  28.522  1.00  0.00    -0.205 F 
ATOM     39  I   UNL     1      -9.607  54.745  25.286  1.00  0.00    -0.044 I 
ENDBRANCH  30  32
ENDBRANCH   8  30
TORSDOF 5
ENDMDL
MODEL 7
REMARK VINA RESULT:    -8.586      8.118     12.228
REMARK INTER + INTRA:         -10.710
REMARK INTER:                 -10.367
REMARK INTRA:                  -0.343
REMARK UNBOUND:                 0.386
REMARK SMILES CC(=O)Nc1cccc(-n2c(=O)n(C3CC3)c(=O)c3c(Nc4ccc(I)cc4F)n(C)c(=O)c(C)c32)c1
REMARK SMILES IDX 10 1 11 2 12 3 13 4 17 5 18 6 19 7 20 8 30 9 31 10 32 11
REMARK SMILES IDX 33 12 34 13 35 14 36 15 9 16 5 17 6 18 37 19 7 20 8 21 4 22
REMARK SMILES IDX 2 23 3 24 1 25 14 27 15 28 16 29 21 30 22 32 23 33 28 34
REMARK SMILES IDX 24 35 27 36 25 37 29 38 26 39
REMARK H PARENT 4 26 21 31
ROOT
ATOM      1  N   UNL     1     -13.024  65.532  32.892  1.00  0.00    -0.261 N 
ATOM      2  C   UNL     1     -13.862  64.923  31.929  1.00  0.00     0.336 C 
ATOM      3  O   UNL     1     -14.972  65.362  31.609  1.00  0.00    -0.247 OA
ATOM      4  N   UNL     1     -13.377  63.752  31.346  1.00  0.00    -0.256 N 
ATOM      5  C   UNL     1     -12.543  62.870  32.020  1.00  0.00     0.268 C 
ATOM      6  O   UNL     1     -12.431  61.694  31.673  1.00  0.00    -0.268 OA
ATOM      7  C   UNL     1     -11.752  63.474  33.140  1.00  0.00     0.106 C 
ATOM      8  C   UNL     1     -10.919  62.716  33.904  1.00  0.00     0.128 C 
ATOM      9  N   UNL     1      -9.969  63.389  34.683  1.00  0.00    -0.297 N 
ATOM     10  C   UNL     1      -9.062  62.644  35.546  1.00  0.00     0.155 C 
ATOM     11  C   UNL     1      -9.745  64.758  34.582  1.00  0.00     0.256 C 
ATOM     12  O   UNL     1      -8.767  65.321  35.070  1.00  0.00    -0.269 OA
ATOM     13  C   UNL     1     -10.794  65.563  33.884  1.00  0.00     0.040 C 
ATOM     14  C   UNL     1     -10.533  67.044  33.912  1.00  0.00     0.053 C 
ATOM     15  C   UNL     1     -11.837  64.913  33.322  1.00  0.00     0.076 C 
ENDROOT
BRANCH   1  16
ATOM     16  C   UNL     1     -13.577  66.686  33.575  1.00  0.00     0.053 A 
ATOM     17  C   UNL     1     -14.275  69.031  33.534  1.00  0.00     0.043 A 
ATOM     18  C   UNL     1     -14.661  68.927  34.874  1.00  0.00     0.026 A 
ATOM     19  C   UNL     1     -13.725  67.913  32.899  1.00  0.00     0.053 A 
ATOM     20  C   UNL     1     -14.506  67.725  35.566  1.00  0.00     0.004 A 
ATOM     21  C   UNL     1     -13.968  66.613  34.920  1.00  0.00     0.027 A 
BRANCH  17  22
ATOM     22  N   UNL     1     -14.475  70.277  32.905  1.00  0.00    -0.326 N 
ATOM     23  C   UNL     1     -15.650  70.773  32.367  1.00  0.00     0.221 C 
ATOM     24  O   UNL     1     -16.740  70.214  32.333  1.00  0.00    -0.275 OA
ATOM     25  C   UNL     1     -15.469  72.158  31.799  1.00  0.00     0.114 C 
ATOM     26  H   UNL     1     -13.666  70.885  32.859  1.00  0.00     0.169 HD
ENDBRANCH  17  22
ENDBRANCH   1  16
BRANCH   4  27
ATOM     27  C   UNL     1     -14.115  63.222  30.207  1.00  0.00     0.096 C 
ATOM     28  C   UNL     1     -13.406  62.530  29.067  1.00  0.00     0.028 C 
ATOM     29  C   UNL     1     -14.036  63.868  28.843  1.00  0.00     0.028 C 
ENDBRANCH   4  27
BRANCH   8  30
ATOM     30  N   UNL     1     -10.908  61.326  33.875  1.00  0.00    -0.338 N 
ATOM     31  H   UNL     1     -11.784  60.925  33.563  1.00  0.00     0.168 HD
BRANCH  30  32
ATOM     32  C   UNL     1      -9.806  60.521  33.486  1.00  0.00     0.076 A 
ATOM     33  C   UNL     1      -9.516  59.392  34.271  1.00  0.00     0.030 A 
ATOM     34  C   UNL     1      -8.917  60.825  32.439  1.00  0.00     0.147 A 
ATOM     35  C   UNL     1      -8.411  58.579  33.995  1.00  0.00     0.017 A 
ATOM     36  C   UNL     1      -7.814  60.021  32.154  1.00  0.00     0.056 A 
ATOM     37  C   UNL     1      -7.565  58.897  32.934  1.00  0.00     0.016 A 
ATOM     38  F   UNL     1      -9.114  61.897  31.655  1.00  0.00    -0.205 F 
ATOM     39  I   UNL     1      -5.924  57.693  32.522  1.00  0.00    -0.044 I 
ENDBRANCH  30  32
ENDBRANCH   8  30
TORSDOF 5
ENDMDL
MODEL 8
REMARK VINA RESULT:    -8.545      5.219      8.545
REMARK INTER + INTRA:         -10.656
REMARK INTER:                 -10.712
REMARK INTRA:                   0.056
REMARK UNBOUND:                 0.386
REMARK SMILES CC(=O)Nc1cccc(-n2c(=O)n(C3CC3)c(=O)c3c(Nc4ccc(I)cc4F)n(C)c(=O)c(C)c32)c1
REMARK SMILES IDX 10 1 11 2 12 3 13 4 17 5 18 6 19 7 20 8 30 9 31 10 32 11
REMARK SMILES IDX 33 12 34 13 35 14 36 15 9 16 5 17 6 18 37 19 7 20 8 21 4 22
REMARK SMILES IDX 2 23 3 24 1 25 14 27 15 28 16 29 21 30 22 32 23 33 28 34
REMARK SMILES IDX 24 35 27 36 25 37 29 38 26 39
REMARK H PARENT 4 26 21 31
ROOT
ATOM      1  N   UNL     1     -10.383  59.758  33.734  1.00  0.00    -0.261 N 
ATOM      2  C   UNL     1     -11.459  59.564  32.837  1.00  0.00     0.336 C 
ATOM      3  O   UNL     1     -11.730  58.476  32.317  1.00  0.00    -0.247 OA
ATOM      4  N   UNL     1     -12.218  60.693  32.534  1.00  0.00    -0.256 N 
ATOM      5  C   UNL     1     -11.681  61.973  32.516  1.00  0.00     0.268 C 
ATOM      6  O   UNL     1     -12.218  62.891  31.895  1.00  0.00    -0.268 OA
ATOM      7  C   UNL     1     -10.452  62.160  33.353  1.00  0.00     0.106 C 
ATOM      8  C   UNL     1      -9.805  63.355  33.401  1.00  0.00     0.128 C 
ATOM      9  N   UNL     1      -8.896  63.554  34.448  1.00  0.00    -0.297 N 
ATOM     10  C   UNL     1      -8.147  64.800  34.547  1.00  0.00     0.155 C 
ATOM     11  C   UNL     1      -8.757  62.661  35.504  1.00  0.00     0.256 C 
ATOM     12  O   UNL     1      -8.153  62.929  36.541  1.00  0.00    -0.269 OA
ATOM     13  C   UNL     1      -9.337  61.296  35.315  1.00  0.00     0.040 C 
ATOM     14  C   UNL     1      -9.050  60.357  36.454  1.00  0.00     0.053 C 
ATOM     15  C   UNL     1     -10.031  61.044  34.183  1.00  0.00     0.076 C 
ENDROOT
BRANCH   1  16
ATOM     16  C   UNL     1      -9.529  58.607  33.961  1.00  0.00     0.053 A 
ATOM     17  C   UNL     1      -7.379  57.479  33.658  1.00  0.00     0.043 A 
ATOM     18  C   UNL     1      -7.856  56.396  34.403  1.00  0.00     0.026 A 
ATOM     19  C   UNL     1      -8.224  58.570  33.433  1.00  0.00     0.053 A 
ATOM     20  C   UNL     1      -9.153  56.406  34.919  1.00  0.00     0.004 A 
ATOM     21  C   UNL     1      -9.982  57.504  34.700  1.00  0.00     0.027 A 
BRANCH  17  22
ATOM     22  N   UNL     1      -6.055  57.395  33.181  1.00  0.00    -0.326 N 
ATOM     23  C   UNL     1      -4.887  57.616  33.890  1.00  0.00     0.221 C 
ATOM     24  O   UNL     1      -4.787  57.936  35.069  1.00  0.00    -0.275 OA
ATOM     25  C   UNL     1      -3.661  57.407  33.035  1.00  0.00     0.114 C 
ATOM     26  H   UNL     1      -5.949  57.122  32.212  1.00  0.00     0.169 HD
ENDBRANCH  17  22
ENDBRANCH   1  16
BRANCH   4  27
ATOM     27  C   UNL     1     -13.451  60.485  31.786  1.00  0.00     0.096 C 
ATOM     28  C   UNL     1     -14.644  61.392  31.973  1.00  0.00     0.028 C 
ATOM     29  C   UNL     1     -14.707  59.978  32.457  1.00  0.00     0.028 C 
ENDBRANCH   4  27
BRANCH   8  30
ATOM     30  N   UNL     1     -10.069  64.402  32.526  1.00  0.00    -0.338 N 
ATOM     31  H   UNL     1     -10.214  64.100  31.570  1.00  0.00     0.168 HD
BRANCH  30  32
ATOM     32  C   UNL     1     -10.853  65.548  32.827  1.00  0.00     0.076 A 
ATOM     33  C   UNL     1     -12.146  65.336  33.334  1.00  0.00     0.030 A 
ATOM     34  C   UNL     1     -10.474  66.875  32.557  1.00  0.00     0.147 A 
ATOM     35  C   UNL     1     -13.007  66.407  33.601  1.00  0.00     0.017 A 
ATOM     36  C   UNL     1     -11.322  67.950  32.819  1.00  0.00     0.056 A 
ATOM     37  C   UNL     1     -12.589  67.711  33.343  1.00  0.00     0.016 A 
ATOM     38  F   UNL     1      -9.262  67.159  32.054  1.00  0.00    -0.205 F 
ATOM     39  I   UNL     1     -13.864  69.303  33.736  1.00  0.00    -0.044 I 
ENDBRANCH  30  32
ENDBRANCH   8  30
TORSDOF 5
ENDMDL
MODEL 9
REMARK VINA RESULT:    -8.528      7.378     10.459
REMARK INTER + INTRA:         -10.634
REMARK INTER:                 -11.245
REMARK INTRA:                   0.611
REMARK UNBOUND:                 0.386
REMARK SMILES CC(=O)Nc1cccc(-n2c(=O)n(C3CC3)c(=O)c3c(Nc4ccc(I)cc4F)n(C)c(=O)c(C)c32)c1
REMARK SMILES IDX 10 1 11 2 12 3 13 4 17 5 18 6 19 7 20 8 30 9 31 10 32 11
REMARK SMILES IDX 33 12 34 13 35 14 36 15 9 16 5 17 6 18 37 19 7 20 8 21 4 22
REMARK SMILES IDX 2 23 3 24 1 25 14 27 15 28 16 29 21 30 22 32 23 33 28 34
REMARK SMILES IDX 24 35 27 36 25 37 29 38 26 39
REMARK H PARENT 4 26 21 31
ROOT
ATOM      1  N   UNL     1     -12.182  62.650  32.500  1.00  0.00    -0.261 N 
ATOM      2  C   UNL     1     -11.067  61.780  32.515  1.00  0.00     0.336 C 
ATOM      3  O   UNL     1     -11.156  60.549  32.457  1.00  0.00    -0.247 OA
ATOM      4  N   UNL     1      -9.816  62.387  32.622  1.00  0.00    -0.256 N 
ATOM      5  C   UNL     1      -9.620  63.583  33.300  1.00  0.00     0.268 C 
ATOM      6  O   UNL     1      -8.510  63.912  33.720  1.00  0.00    -0.268 OA
ATOM      7  C   UNL     1     -10.833  64.454  33.416  1.00  0.00     0.106 C 
ATOM      8  C   UNL     1     -10.789  65.639  34.083  1.00  0.00     0.128 C 
ATOM      9  N   UNL     1     -11.834  66.544  33.858  1.00  0.00    -0.297 N 
ATOM     10  C   UNL     1     -11.867  67.821  34.559  1.00  0.00     0.155 C 
ATOM     11  C   UNL     1     -12.802  66.348  32.879  1.00  0.00     0.256 C 
ATOM     12  O   UNL     1     -13.574  67.230  32.505  1.00  0.00    -0.269 OA
ATOM     13  C   UNL     1     -12.920  64.969  32.313  1.00  0.00     0.040 C 
ATOM     14  C   UNL     1     -14.058  64.812  31.343  1.00  0.00     0.053 C 
ATOM     15  C   UNL     1     -12.032  64.032  32.713  1.00  0.00     0.076 C 
ENDROOT
BRANCH   1  16
ATOM     16  C   UNL     1     -13.485  62.011  32.499  1.00  0.00     0.053 A 
ATOM     17  C   UNL     1     -15.359  61.036  31.265  1.00  0.00     0.043 A 
ATOM     18  C   UNL     1     -15.998  60.761  32.477  1.00  0.00     0.026 A 
ATOM     19  C   UNL     1     -14.113  61.670  31.285  1.00  0.00     0.053 A 
ATOM     20  C   UNL     1     -15.401  61.108  33.689  1.00  0.00     0.004 A 
ATOM     21  C   UNL     1     -14.153  61.728  33.699  1.00  0.00     0.027 A 
BRANCH  17  22
ATOM     22  N   UNL     1     -16.025  60.644  30.085  1.00  0.00    -0.326 N 
ATOM     23  C   UNL     1     -16.520  61.462  29.084  1.00  0.00     0.221 C 
ATOM     24  O   UNL     1     -16.478  62.686  29.042  1.00  0.00    -0.275 OA
ATOM     25  C   UNL     1     -17.150  60.667  27.967  1.00  0.00     0.114 C 
ATOM     26  H   UNL     1     -16.135  59.647  29.948  1.00  0.00     0.169 HD
ENDBRANCH  17  22
ENDBRANCH   1  16
BRANCH   4  27
ATOM     27  C   UNL     1      -8.647  61.540  32.428  1.00  0.00     0.096 C 
ATOM     28  C   UNL     1      -8.768  60.035  32.380  1.00  0.00     0.028 C 
ATOM     29  C   UNL     1      -8.093  60.687  33.545  1.00  0.00     0.028 C 
ENDBRANCH   4  27
BRANCH   8  30
ATOM     30  N   UNL     1      -9.726  66.021  34.893  1.00  0.00    -0.338 N 
ATOM     31  H   UNL     1      -9.314  65.251  35.405  1.00  0.00     0.168 HD
BRANCH  30  32
ATOM     32  C   UNL     1      -8.750  66.998  34.561  1.00  0.00     0.076 A 
ATOM     33  C   UNL     1      -8.192  67.743  35.614  1.00  0.00     0.030 A 
ATOM     34  C   UNL     1      -8.377  67.349  33.252  1.00  0.00     0.147 A 
ATOM     35  C   UNL     1      -7.268  68.767  35.370  1.00  0.00     0.017 A 
ATOM     36  C   UNL     1      -7.458  68.367  32.997  1.00  0.00     0.056 A 
ATOM     37  C   UNL     1      -6.904  69.072  34.060  1.00  0.00     0.016 A 
ATOM     38  F   UNL     1      -8.881  66.698  32.192  1.00  0.00    -0.205 F 
ATOM     39  I   UNL     1      -5.536  70.591  33.694  1.00  0.00    -0.044 I 
ENDBRANCH  30  32
ENDBRANCH   8  30
TORSDOF 5
ENDMDL
MODEL 10
REMARK VINA RESULT:    -8.462      5.518      8.919
REMARK INTER + INTRA:         -10.549
REMARK INTER:                 -10.280
REMARK INTRA:                  -0.269
REMARK UNBOUND:                 0.386
REMARK SMILES CC(=O)Nc1cccc(-n2c(=O)n(C3CC3)c(=O)c3c(Nc4ccc(I)cc4F)n(C)c(=O)c(C)c32)c1
REMARK SMILES IDX 10 1 11 2 12 3 13 4 17 5 18 6 19 7 20 8 30 9 31 10 32 11
REMARK SMILES IDX 33 12 34 13 35 14 36 15 9 16 5 17 6 18 37 19 7 20 8 21 4 22
REMARK SMILES IDX 2 23 3 24 1 25 14 27 15 28 16 29 21 30 22 32 23 33 28 34
REMARK SMILES IDX 24 35 27 36 25 37 29 38 26 39
REMARK H PARENT 4 26 21 31
ROOT
ATOM      1  N   UNL     1     -10.164  60.329  33.793  1.00  0.00    -0.261 N 
ATOM      2  C   UNL     1     -11.227  60.086  32.892  1.00  0.00     0.336 C 
ATOM      3  O   UNL     1     -11.371  59.027  32.272  1.00  0.00    -0.247 OA
ATOM      4  N   UNL     1     -12.128  61.134  32.707  1.00  0.00    -0.256 N 
ATOM      5  C   UNL     1     -11.755  62.467  32.808  1.00  0.00     0.268 C 
ATOM      6  O   UNL     1     -12.417  63.364  32.285  1.00  0.00    -0.268 OA
ATOM      7  C   UNL     1     -10.542  62.728  33.647  1.00  0.00     0.106 C 
ATOM      8  C   UNL     1     -10.049  63.985  33.805  1.00  0.00     0.128 C 
ATOM      9  N   UNL     1      -9.149  64.198  34.857  1.00  0.00    -0.297 N 
ATOM     10  C   UNL     1      -8.560  65.514  35.069  1.00  0.00     0.155 C 
ATOM     11  C   UNL     1      -8.876  63.233  35.821  1.00  0.00     0.256 C 
ATOM     12  O   UNL     1      -8.287  63.476  36.873  1.00  0.00    -0.269 OA
ATOM     13  C   UNL     1      -9.285  61.830  35.505  1.00  0.00     0.040 C 
ATOM     14  C   UNL     1      -8.858  60.831  36.545  1.00  0.00     0.053 C 
ATOM     15  C   UNL     1      -9.966  61.600  34.361  1.00  0.00     0.076 C 
ENDROOT
BRANCH   1  16
ATOM     16  C   UNL     1      -9.168  59.279  33.899  1.00  0.00     0.053 A 
ATOM     17  C   UNL     1      -8.499  57.080  34.737  1.00  0.00     0.043 A 
ATOM     18  C   UNL     1      -7.262  57.228  34.102  1.00  0.00     0.026 A 
ATOM     19  C   UNL     1      -9.437  58.112  34.640  1.00  0.00     0.053 A 
ATOM     20  C   UNL     1      -6.970  58.385  33.379  1.00  0.00     0.004 A 
ATOM     21  C   UNL     1      -7.917  59.402  33.278  1.00  0.00     0.027 A 
BRANCH  17  22
ATOM     22  N   UNL     1      -8.719  55.876  35.439  1.00  0.00    -0.326 N 
ATOM     23  C   UNL     1      -9.335  54.728  34.974  1.00  0.00     0.221 C 
ATOM     24  O   UNL     1      -9.814  54.546  33.860  1.00  0.00    -0.275 OA
ATOM     25  C   UNL     1      -9.361  53.640  36.018  1.00  0.00     0.114 C 
ATOM     26  H   UNL     1      -8.367  55.847  36.388  1.00  0.00     0.169 HD
ENDBRANCH  17  22
ENDBRANCH   1  16
BRANCH   4  27
ATOM     27  C   UNL     1     -13.341  60.843  31.955  1.00  0.00     0.096 C 
ATOM     28  C   UNL     1     -14.654  61.508  32.296  1.00  0.00     0.028 C 
ATOM     29  C   UNL     1     -14.475  60.047  32.559  1.00  0.00     0.028 C 
ENDBRANCH   4  27
BRANCH   8  30
ATOM     30  N   UNL     1     -10.461  65.069  33.038  1.00  0.00    -0.338 N 
ATOM     31  H   UNL     1     -10.759  64.811  32.105  1.00  0.00     0.168 HD
BRANCH  30  32
ATOM     32  C   UNL     1     -11.194  66.186  33.520  1.00  0.00     0.076 A 
ATOM     33  C   UNL     1     -12.466  65.943  34.064  1.00  0.00     0.030 A 
ATOM     34  C   UNL     1     -10.788  67.527  33.398  1.00  0.00     0.147 A 
ATOM     35  C   UNL     1     -13.280  66.993  34.506  1.00  0.00     0.017 A 
ATOM     36  C   UNL     1     -11.589  68.581  33.836  1.00  0.00     0.056 A 
ATOM     37  C   UNL     1     -12.835  68.309  34.392  1.00  0.00     0.016 A 
ATOM     38  F   UNL     1      -9.594  67.843  32.871  1.00  0.00    -0.205 F 
ATOM     39  I   UNL     1     -14.040  69.869  35.045  1.00  0.00    -0.044 I 
ENDBRANCH  30  32
ENDBRANCH   8  30
TORSDOF 5
ENDMDL
MODEL 11
REMARK VINA RESULT:    -8.461      7.598     12.176
REMARK INTER + INTRA:         -10.548
REMARK INTER:                 -10.306
REMARK INTRA:                  -0.242
REMARK UNBOUND:                 0.386
REMARK SMILES CC(=O)Nc1cccc(-n2c(=O)n(C3CC3)c(=O)c3c(Nc4ccc(I)cc4F)n(C)c(=O)c(C)c32)c1
REMARK SMILES IDX 10 1 11 2 12 3 13 4 17 5 18 6 19 7 20 8 30 9 31 10 32 11
REMARK SMILES IDX 33 12 34 13 35 14 36 15 9 16 5 17 6 18 37 19 7 20 8 21 4 22
REMARK SMILES IDX 2 23 3 24 1 25 14 27 15 28 16 29 21 30 22 32 23 33 28 34
REMARK SMILES IDX 24 35 27 36 25 37 29 38 26 39
REMARK H PARENT 4 26 21 31
ROOT
ATOM      1  N   UNL     1     -12.817  65.623  32.812  1.00  0.00    -0.261 N 
ATOM      2  C   UNL     1     -13.695  64.993  31.900  1.00  0.00     0.336 C 
ATOM      3  O   UNL     1     -14.802  65.448  31.589  1.00  0.00    -0.247 OA
ATOM      4  N   UNL     1     -13.257  63.784  31.361  1.00  0.00    -0.256 N 
ATOM      5  C   UNL     1     -12.428  62.912  32.053  1.00  0.00     0.268 C 
ATOM      6  O   UNL     1     -12.357  61.718  31.759  1.00  0.00    -0.268 OA
ATOM      7  C   UNL     1     -11.592  63.545  33.124  1.00  0.00     0.106 C 
ATOM      8  C   UNL     1     -10.759  62.801  33.900  1.00  0.00     0.128 C 
ATOM      9  N   UNL     1      -9.771  63.483  34.623  1.00  0.00    -0.297 N 
ATOM     10  C   UNL     1      -8.861  62.753  35.496  1.00  0.00     0.155 C 
ATOM     11  C   UNL     1      -9.515  64.838  34.452  1.00  0.00     0.256 C 
ATOM     12  O   UNL     1      -8.509  65.396  34.889  1.00  0.00    -0.269 OA
ATOM     13  C   UNL     1     -10.561  65.639  33.745  1.00  0.00     0.040 C 
ATOM     14  C   UNL     1     -10.260  67.113  33.697  1.00  0.00     0.053 C 
ATOM     15  C   UNL     1     -11.635  64.992  33.240  1.00  0.00     0.076 C 
ENDROOT
BRANCH   1  16
ATOM     16  C   UNL     1     -13.321  66.823  33.455  1.00  0.00     0.053 A 
ATOM     17  C   UNL     1     -14.293  67.920  35.413  1.00  0.00     0.043 A 
ATOM     18  C   UNL     1     -14.285  69.135  34.721  1.00  0.00     0.026 A 
ATOM     19  C   UNL     1     -13.822  66.771  34.770  1.00  0.00     0.053 A 
ATOM     20  C   UNL     1     -13.810  69.202  33.411  1.00  0.00     0.004 A 
ATOM     21  C   UNL     1     -13.331  68.054  32.784  1.00  0.00     0.027 A 
BRANCH  17  22
ATOM     22  N   UNL     1     -14.781  67.939  36.737  1.00  0.00    -0.326 N 
ATOM     23  C   UNL     1     -15.415  66.913  37.417  1.00  0.00     0.221 C 
ATOM     24  O   UNL     1     -15.678  65.795  36.990  1.00  0.00    -0.275 OA
ATOM     25  C   UNL     1     -15.770  67.310  38.828  1.00  0.00     0.114 C 
ATOM     26  H   UNL     1     -14.632  68.798  37.252  1.00  0.00     0.169 HD
ENDBRANCH  17  22
ENDBRANCH   1  16
BRANCH   4  27
ATOM     27  C   UNL     1     -14.038  63.223  30.267  1.00  0.00     0.096 C 
ATOM     28  C   UNL     1     -13.373  62.519  29.108  1.00  0.00     0.028 C 
ATOM     29  C   UNL     1     -14.032  63.844  28.889  1.00  0.00     0.028 C 
ENDBRANCH   4  27
BRANCH   8  30
ATOM     30  N   UNL     1     -10.785  61.411  33.936  1.00  0.00    -0.338 N 
ATOM     31  H   UNL     1     -11.686  61.021  33.688  1.00  0.00     0.168 HD
BRANCH  30  32
ATOM     32  C   UNL     1      -9.725  60.558  33.530  1.00  0.00     0.076 A 
ATOM     33  C   UNL     1      -9.444  59.442  34.335  1.00  0.00     0.030 A 
ATOM     34  C   UNL     1      -8.868  60.804  32.443  1.00  0.00     0.147 A 
ATOM     35  C   UNL     1      -8.378  58.584  34.041  1.00  0.00     0.017 A 
ATOM     36  C   UNL     1      -7.803  59.955  32.140  1.00  0.00     0.056 A 
ATOM     37  C   UNL     1      -7.563  58.845  32.942  1.00  0.00     0.016 A 
ATOM     38  F   UNL     1      -9.058  61.861  31.638  1.00  0.00    -0.205 F 
ATOM     39  I   UNL     1      -5.979  57.575  32.503  1.00  0.00    -0.044 I 
ENDBRANCH  30  32
ENDBRANCH   8  30
TORSDOF 5
ENDMDL
MODEL 12
REMARK VINA RESULT:    -8.308      3.971      7.033
REMARK INTER + INTRA:         -10.350
REMARK INTER:                 -11.253
REMARK INTRA:                   0.903
REMARK UNBOUND:                 0.386
REMARK SMILES CC(=O)Nc1cccc(-n2c(=O)n(C3CC3)c(=O)c3c(Nc4ccc(I)cc4F)n(C)c(=O)c(C)c32)c1
REMARK SMILES IDX 10 1 11 2 12 3 13 4 17 5 18 6 19 7 20 8 30 9 31 10 32 11
REMARK SMILES IDX 33 12 34 13 35 14 36 15 9 16 5 17 6 18 37 19 7 20 8 21 4 22
REMARK SMILES IDX 2 23 3 24 1 25 14 27 15 28 16 29 21 30 22 32 23 33 28 34
REMARK SMILES IDX 24 35 27 36 25 37 29 38 26 39
REMARK H PARENT 4 26 21 31
ROOT
ATOM      1  N   UNL     1      -6.615  54.567  32.538  1.00  0.00    -0.261 N 
ATOM      2  C   UNL     1      -5.989  53.766  31.555  1.00  0.00     0.336 C 
ATOM      3  O   UNL     1      -6.520  52.778  31.035  1.00  0.00    -0.247 OA
ATOM      4  N   UNL     1      -4.693  54.135  31.195  1.00  0.00    -0.256 N 
ATOM      5  C   UNL     1      -3.816  54.745  32.080  1.00  0.00     0.268 C 
ATOM      6  O   UNL     1      -2.597  54.720  31.903  1.00  0.00    -0.268 OA
ATOM      7  C   UNL     1      -4.465  55.482  33.213  1.00  0.00     0.106 C 
ATOM      8  C   UNL     1      -3.722  56.099  34.171  1.00  0.00     0.128 C 
ATOM      9  N   UNL     1      -4.369  57.042  34.980  1.00  0.00    -0.297 N 
ATOM     10  C   UNL     1      -3.642  57.722  36.044  1.00  0.00     0.155 C 
ATOM     11  C   UNL     1      -5.667  57.477  34.738  1.00  0.00     0.256 C 
ATOM     12  O   UNL     1      -6.161  58.465  35.279  1.00  0.00    -0.269 OA
ATOM     13  C   UNL     1      -6.495  56.647  33.810  1.00  0.00     0.040 C 
ATOM     14  C   UNL     1      -7.917  57.121  33.686  1.00  0.00     0.053 C 
ATOM     15  C   UNL     1      -5.913  55.591  33.199  1.00  0.00     0.076 C 
ENDROOT
BRANCH   1  16
ATOM     16  C   UNL     1      -7.919  54.117  32.989  1.00  0.00     0.053 A 
ATOM     17  C   UNL     1      -9.366  53.301  34.785  1.00  0.00     0.043 A 
ATOM     18  C   UNL     1     -10.436  53.258  33.886  1.00  0.00     0.026 A 
ATOM     19  C   UNL     1      -8.112  53.718  34.326  1.00  0.00     0.053 A 
ATOM     20  C   UNL     1     -10.259  53.632  32.554  1.00  0.00     0.004 A 
ATOM     21  C   UNL     1      -9.009  54.059  32.110  1.00  0.00     0.027 A 
BRANCH  17  22
ATOM     22  N   UNL     1      -9.630  52.916  36.116  1.00  0.00    -0.326 N 
ATOM     23  C   UNL     1      -9.547  53.701  37.253  1.00  0.00     0.221 C 
ATOM     24  O   UNL     1      -9.220  54.880  37.315  1.00  0.00    -0.275 OA
ATOM     25  C   UNL     1      -9.931  52.935  38.495  1.00  0.00     0.114 C 
ATOM     26  H   UNL     1      -9.934  51.960  36.250  1.00  0.00     0.169 HD
ENDBRANCH  17  22
ENDBRANCH   1  16
BRANCH   4  27
ATOM     27  C   UNL     1      -4.107  53.463  30.043  1.00  0.00     0.096 C 
ATOM     28  C   UNL     1      -3.693  54.235  28.812  1.00  0.00     0.028 C 
ATOM     29  C   UNL     1      -4.866  53.309  28.745  1.00  0.00     0.028 C 
ENDBRANCH   4  27
BRANCH   8  30
ATOM     30  N   UNL     1      -2.353  55.906  34.319  1.00  0.00    -0.338 N 
ATOM     31  H   UNL     1      -2.029  55.024  33.942  1.00  0.00     0.168 HD
BRANCH  30  32
ATOM     32  C   UNL     1      -1.362  56.915  34.190  1.00  0.00     0.076 A 
ATOM     33  C   UNL     1      -1.780  58.186  33.762  1.00  0.00     0.030 A 
ATOM     34  C   UNL     1       0.020  56.710  34.355  1.00  0.00     0.147 A 
ATOM     35  C   UNL     1      -0.860  59.220  33.550  1.00  0.00     0.017 A 
ATOM     36  C   UNL     1       0.944  57.733  34.148  1.00  0.00     0.056 A 
ATOM     37  C   UNL     1       0.499  58.988  33.746  1.00  0.00     0.016 A 
ATOM     38  F   UNL     1       0.500  55.518  34.743  1.00  0.00    -0.205 F 
ATOM     39  I   UNL     1       1.866  60.520  33.431  1.00  0.00    -0.044 I 
ENDBRANCH  30  32
ENDBRANCH   8  30
TORSDOF 5
ENDMDL
MODEL 13
REMARK VINA RESULT:    -8.123      6.314      9.508
REMARK INTER + INTRA:         -10.111
REMARK INTER:                  -9.875
REMARK INTRA:                  -0.236
REMARK UNBOUND:                 0.386
REMARK SMILES CC(=O)Nc1cccc(-n2c(=O)n(C3CC3)c(=O)c3c(Nc4ccc(I)cc4F)n(C)c(=O)c(C)c32)c1
REMARK SMILES IDX 10 1 11 2 12 3 13 4 17 5 18 6 19 7 20 8 30 9 31 10 32 11
REMARK SMILES IDX 33 12 34 13 35 14 36 15 9 16 5 17 6 18 37 19 7 20 8 21 4 22
REMARK SMILES IDX 2 23 3 24 1 25 14 27 15 28 16 29 21 30 22 32 23 33 28 34
REMARK SMILES IDX 24 35 27 36 25 37 29 38 26 39
REMARK H PARENT 4 26 21 31
ROOT
ATOM      1  N   UNL     1     -10.860  61.083  33.412  1.00  0.00    -0.261 N 
ATOM      2  C   UNL     1     -12.087  60.740  32.798  1.00  0.00     0.336 C 
ATOM      3  O   UNL     1     -12.289  59.666  32.221  1.00  0.00    -0.247 OA
ATOM      4  N   UNL     1     -13.091  61.706  32.851  1.00  0.00    -0.256 N 
ATOM      5  C   UNL     1     -12.820  63.067  32.871  1.00  0.00     0.268 C 
ATOM      6  O   UNL     1     -13.665  63.899  32.536  1.00  0.00    -0.268 OA
ATOM      7  C   UNL     1     -11.464  63.439  33.389  1.00  0.00     0.106 C 
ATOM      8  C   UNL     1     -11.056  64.736  33.433  1.00  0.00     0.128 C 
ATOM      9  N   UNL     1      -9.947  65.035  34.235  1.00  0.00    -0.297 N 
ATOM     10  C   UNL     1      -9.438  66.399  34.309  1.00  0.00     0.155 C 
ATOM     11  C   UNL     1      -9.365  64.108  35.091  1.00  0.00     0.256 C 
ATOM     12  O   UNL     1      -8.559  64.412  35.969  1.00  0.00    -0.269 OA
ATOM     13  C   UNL     1      -9.717  62.672  34.871  1.00  0.00     0.040 C 
ATOM     14  C   UNL     1      -8.965  61.724  35.764  1.00  0.00     0.053 C 
ATOM     15  C   UNL     1     -10.637  62.372  33.927  1.00  0.00     0.076 C 
ENDROOT
BRANCH   1  16
ATOM     16  C   UNL     1      -9.783  60.122  33.259  1.00  0.00     0.053 A 
ATOM     17  C   UNL     1      -8.787  57.959  33.820  1.00  0.00     0.043 A 
ATOM     18  C   UNL     1      -7.718  58.243  32.964  1.00  0.00     0.026 A 
ATOM     19  C   UNL     1      -9.805  58.906  33.970  1.00  0.00     0.053 A 
ATOM     20  C   UNL     1      -7.669  59.450  32.267  1.00  0.00     0.004 A 
ATOM     21  C   UNL     1      -8.695  60.382  32.413  1.00  0.00     0.027 A 
BRANCH  17  22
ATOM     22  N   UNL     1      -8.765  56.713  34.481  1.00  0.00    -0.326 N 
ATOM     23  C   UNL     1      -8.993  55.463  33.932  1.00  0.00     0.221 C 
ATOM     24  O   UNL     1      -9.265  55.206  32.765  1.00  0.00    -0.275 OA
ATOM     25  C   UNL     1      -8.859  54.365  34.957  1.00  0.00     0.114 C 
ATOM     26  H   UNL     1      -8.538  56.738  35.467  1.00  0.00     0.169 HD
ENDBRANCH  17  22
ENDBRANCH   1  16
BRANCH   4  27
ATOM     27  C   UNL     1     -14.423  61.305  32.417  1.00  0.00     0.096 C 
ATOM     28  C   UNL     1     -15.653  62.058  32.865  1.00  0.00     0.028 C 
ATOM     29  C   UNL     1     -15.409  60.672  33.372  1.00  0.00     0.028 C 
ENDBRANCH   4  27
BRANCH   8  30
ATOM     30  N   UNL     1     -11.735  65.772  32.803  1.00  0.00    -0.338 N 
ATOM     31  H   UNL     1     -12.203  65.486  31.951  1.00  0.00     0.168 HD
BRANCH  30  32
ATOM     32  C   UNL     1     -12.453  66.805  33.462  1.00  0.00     0.076 A 
ATOM     33  C   UNL     1     -13.363  66.428  34.463  1.00  0.00     0.030 A 
ATOM     34  C   UNL     1     -12.402  68.167  33.115  1.00  0.00     0.147 A 
ATOM     35  C   UNL     1     -14.156  67.377  35.120  1.00  0.00     0.017 A 
ATOM     36  C   UNL     1     -13.186  69.121  33.763  1.00  0.00     0.056 A 
ATOM     37  C   UNL     1     -14.061  68.721  34.767  1.00  0.00     0.016 A 
ATOM     38  F   UNL     1     -11.573  68.605  32.154  1.00  0.00    -0.205 F 
ATOM     39  I   UNL     1     -15.237  70.131  35.738  1.00  0.00    -0.044 I 
ENDBRANCH  30  32
ENDBRANCH   8  30
TORSDOF 5
ENDMDL
MODEL 14
REMARK VINA RESULT:    -8.056      9.809     12.315
REMARK INTER + INTRA:         -10.025
REMARK INTER:                 -10.593
REMARK INTRA:                   0.568
REMARK UNBOUND:                 0.386
REMARK SMILES CC(=O)Nc1cccc(-n2c(=O)n(C3CC3)c(=O)c3c(Nc4ccc(I)cc4F)n(C)c(=O)c(C)c32)c1
REMARK SMILES IDX 10 1 11 2 12 3 13 4 17 5 18 6 19 7 20 8 30 9 31 10 32 11
REMARK SMILES IDX 33 12 34 13 35 14 36 15 9 16 5 17 6 18 37 19 7 20 8 21 4 22
REMARK SMILES IDX 2 23 3 24 1 25 14 27 15 28 16 29 21 30 22 32 23 33 28 34
REMARK SMILES IDX 24 35 27 36 25 37 29 38 26 39
REMARK H PARENT 4 26 21 31
ROOT
ATOM      1  N   UNL     1     -13.389  65.639  33.003  1.00  0.00    -0.261 N 
ATOM      2  C   UNL     1     -14.243  66.665  33.470  1.00  0.00     0.336 C 
ATOM      3  O   UNL     1     -15.458  66.701  33.247  1.00  0.00    -0.247 OA
ATOM      4  N   UNL     1     -13.635  67.684  34.203  1.00  0.00    -0.256 N 
ATOM      5  C   UNL     1     -12.324  68.085  33.982  1.00  0.00     0.268 C 
ATOM      6  O   UNL     1     -11.919  69.193  34.333  1.00  0.00    -0.268 OA
ATOM      7  C   UNL     1     -11.440  67.051  33.353  1.00  0.00     0.106 C 
ATOM      8  C   UNL     1     -10.141  67.321  33.053  1.00  0.00     0.128 C 
ATOM      9  N   UNL     1      -9.298  66.231  32.801  1.00  0.00    -0.297 N 
ATOM     10  C   UNL     1      -7.901  66.447  32.445  1.00  0.00     0.155 C 
ATOM     11  C   UNL     1      -9.691  64.913  33.002  1.00  0.00     0.256 C 
ATOM     12  O   UNL     1      -8.904  63.968  33.020  1.00  0.00    -0.269 OA
ATOM     13  C   UNL     1     -11.157  64.661  33.145  1.00  0.00     0.040 C 
ATOM     14  C   UNL     1     -11.510  63.202  33.249  1.00  0.00     0.053 C 
ATOM     15  C   UNL     1     -11.994  65.722  33.162  1.00  0.00     0.076 C 
ENDROOT
BRANCH   1  16
ATOM     16  C   UNL     1     -14.005  64.640  32.149  1.00  0.00     0.053 A 
ATOM     17  C   UNL     1     -15.461  62.691  31.890  1.00  0.00     0.043 A 
ATOM     18  C   UNL     1     -15.220  62.710  30.512  1.00  0.00     0.026 A 
ATOM     19  C   UNL     1     -14.842  63.649  32.699  1.00  0.00     0.053 A 
ATOM     20  C   UNL     1     -14.380  63.672  29.952  1.00  0.00     0.004 A 
ATOM     21  C   UNL     1     -13.778  64.631  30.765  1.00  0.00     0.027 A 
BRANCH  17  22
ATOM     22  N   UNL     1     -16.330  61.692  32.375  1.00  0.00    -0.326 N 
ATOM     23  C   UNL     1     -15.987  60.510  33.009  1.00  0.00     0.221 C 
ATOM     24  O   UNL     1     -14.857  60.108  33.260  1.00  0.00    -0.275 OA
ATOM     25  C   UNL     1     -17.202  59.709  33.402  1.00  0.00     0.114 C 
ATOM     26  H   UNL     1     -17.320  61.872  32.262  1.00  0.00     0.169 HD
ENDBRANCH  17  22
ENDBRANCH   1  16
BRANCH   4  27
ATOM     27  C   UNL     1     -14.511  68.635  34.873  1.00  0.00     0.096 C 
ATOM     28  C   UNL     1     -14.078  69.349  36.132  1.00  0.00     0.028 C 
ATOM     29  C   UNL     1     -15.158  68.316  36.201  1.00  0.00     0.028 C 
ENDBRANCH   4  27
BRANCH   8  30
ATOM     30  N   UNL     1      -9.603  68.603  33.074  1.00  0.00    -0.338 N 
ATOM     31  H   UNL     1     -10.285  69.321  33.283  1.00  0.00     0.168 HD
BRANCH  30  32
ATOM     32  C   UNL     1      -8.322  68.948  33.581  1.00  0.00     0.076 A 
ATOM     33  C   UNL     1      -7.449  69.640  32.725  1.00  0.00     0.030 A 
ATOM     34  C   UNL     1      -7.822  68.556  34.836  1.00  0.00     0.147 A 
ATOM     35  C   UNL     1      -6.146  69.964  33.123  1.00  0.00     0.017 A 
ATOM     36  C   UNL     1      -6.527  68.875  35.243  1.00  0.00     0.056 A 
ATOM     37  C   UNL     1      -5.692  69.581  34.383  1.00  0.00     0.016 A 
ATOM     38  F   UNL     1      -8.587  67.875  35.703  1.00  0.00    -0.205 F 
ATOM     39  I   UNL     1      -3.760  70.060  34.977  1.00  0.00    -0.044 I 
ENDBRANCH  30  32
ENDBRANCH   8  30
TORSDOF 5
ENDMDL
MODEL 15
REMARK VINA RESULT:    -8.046      6.626     11.099
REMARK INTER + INTRA:         -10.012
REMARK INTER:                 -11.352
REMARK INTRA:                   1.341
REMARK UNBOUND:                 0.386
REMARK SMILES CC(=O)Nc1cccc(-n2c(=O)n(C3CC3)c(=O)c3c(Nc4ccc(I)cc4F)n(C)c(=O)c(C)c32)c1
REMARK SMILES IDX 10 1 11 2 12 3 13 4 17 5 18 6 19 7 20 8 30 9 31 10 32 11
REMARK SMILES IDX 33 12 34 13 35 14 36 15 9 16 5 17 6 18 37 19 7 20 8 21 4 22
REMARK SMILES IDX 2 23 3 24 1 25 14 27 15 28 16 29 21 30 22 32 23 33 28 34
REMARK SMILES IDX 24 35 27 36 25 37 29 38 26 39
REMARK H PARENT 4 26 21 31
ROOT
ATOM      1  N   UNL     1     -11.515  64.621  32.768  1.00  0.00    -0.261 N 
ATOM      2  C   UNL     1     -12.641  64.284  31.981  1.00  0.00     0.336 C 
ATOM      3  O   UNL     1     -13.530  65.087  31.678  1.00  0.00    -0.247 OA
ATOM      4  N   UNL     1     -12.723  62.957  31.562  1.00  0.00    -0.256 N 
ATOM      5  C   UNL     1     -12.208  61.904  32.307  1.00  0.00     0.268 C 
ATOM      6  O   UNL     1     -12.602  60.748  32.149  1.00  0.00    -0.268 OA
ATOM      7  C   UNL     1     -11.106  62.272  33.253  1.00  0.00     0.106 C 
ATOM      8  C   UNL     1     -10.533  61.344  34.065  1.00  0.00     0.128 C 
ATOM      9  N   UNL     1      -9.304  61.672  34.652  1.00  0.00    -0.297 N 
ATOM     10  C   UNL     1      -8.646  60.737  35.555  1.00  0.00     0.155 C 
ATOM     11  C   UNL     1      -8.590  62.815  34.313  1.00  0.00     0.256 C 
ATOM     12  O   UNL     1      -7.415  62.997  34.630  1.00  0.00    -0.269 OA
ATOM     13  C   UNL     1      -9.333  63.881  33.574  1.00  0.00     0.040 C 
ATOM     14  C   UNL     1      -8.523  65.128  33.341  1.00  0.00     0.053 C 
ATOM     15  C   UNL     1     -10.609  63.637  33.204  1.00  0.00     0.076 C 
ENDROOT
BRANCH   1  16
ATOM     16  C   UNL     1     -11.489  65.973  33.293  1.00  0.00     0.053 A 
ATOM     17  C   UNL     1     -10.381  68.147  33.476  1.00  0.00     0.043 A 
ATOM     18  C   UNL     1     -11.427  68.598  34.286  1.00  0.00     0.026 A 
ATOM     19  C   UNL     1     -10.414  66.834  32.997  1.00  0.00     0.053 A 
ATOM     20  C   UNL     1     -12.491  67.755  34.606  1.00  0.00     0.004 A 
ATOM     21  C   UNL     1     -12.521  66.452  34.112  1.00  0.00     0.027 A 
BRANCH  17  22
ATOM     22  N   UNL     1      -9.348  69.065  33.192  1.00  0.00    -0.326 N 
ATOM     23  C   UNL     1      -8.083  69.112  33.752  1.00  0.00     0.221 C 
ATOM     24  O   UNL     1      -7.627  68.365  34.610  1.00  0.00    -0.275 OA
ATOM     25  C   UNL     1      -7.252  70.229  33.172  1.00  0.00     0.114 C 
ATOM     26  H   UNL     1      -9.553  69.757  32.481  1.00  0.00     0.169 HD
ENDBRANCH  17  22
ENDBRANCH   1  16
BRANCH   4  27
ATOM     27  C   UNL     1     -13.750  62.631  30.583  1.00  0.00     0.096 C 
ATOM     28  C   UNL     1     -13.410  61.913  29.298  1.00  0.00     0.028 C 
ATOM     29  C   UNL     1     -13.833  63.347  29.255  1.00  0.00     0.028 C 
ENDBRANCH   4  27
BRANCH   8  30
ATOM     30  N   UNL     1     -11.059  60.072  34.262  1.00  0.00    -0.338 N 
ATOM     31  H   UNL     1     -12.058  60.022  34.103  1.00  0.00     0.168 HD
BRANCH  30  32
ATOM     32  C   UNL     1     -10.420  58.855  33.908  1.00  0.00     0.076 A 
ATOM     33  C   UNL     1     -10.575  57.762  34.778  1.00  0.00     0.030 A 
ATOM     34  C   UNL     1      -9.558  58.689  32.809  1.00  0.00     0.147 A 
ATOM     35  C   UNL     1      -9.929  56.544  34.536  1.00  0.00     0.017 A 
ATOM     36  C   UNL     1      -8.911  57.480  32.558  1.00  0.00     0.056 A 
ATOM     37  C   UNL     1      -9.101  56.408  33.425  1.00  0.00     0.016 A 
ATOM     38  F   UNL     1      -9.342  59.691  31.943  1.00  0.00    -0.205 F 
ATOM     39  I   UNL     1      -8.141  54.602  33.064  1.00  0.00    -0.044 I 
ENDBRANCH  30  32
ENDBRANCH   8  30
TORSDOF 5
ENDMDL
MODEL 16
REMARK VINA RESULT:    -8.015      6.992     11.137
REMARK INTER + INTRA:          -9.972
REMARK INTER:                 -10.214
REMARK INTRA:                   0.242
REMARK UNBOUND:                 0.386
REMARK SMILES CC(=O)Nc1cccc(-n2c(=O)n(C3CC3)c(=O)c3c(Nc4ccc(I)cc4F)n(C)c(=O)c(C)c32)c1
REMARK SMILES IDX 10 1 11 2 12 3 13 4 17 5 18 6 19 7 20 8 30 9 31 10 32 11
REMARK SMILES IDX 33 12 34 13 35 14 36 15 9 16 5 17 6 18 37 19 7 20 8 21 4 22
REMARK SMILES IDX 2 23 3 24 1 25 14 27 15 28 16 29 21 30 22 32 23 33 28 34
REMARK SMILES IDX 24 35 27 36 25 37 29 38 26 39
REMARK H PARENT 4 26 21 31
ROOT
ATOM      1  N   UNL     1      -8.778  63.331  34.188  1.00  0.00    -0.261 N 
ATOM      2  C   UNL     1      -7.687  64.143  34.577  1.00  0.00     0.336 C 
ATOM      3  O   UNL     1      -6.635  63.697  35.048  1.00  0.00    -0.247 OA
ATOM      4  N   UNL     1      -7.858  65.518  34.421  1.00  0.00    -0.256 N 
ATOM      5  C   UNL     1      -9.097  66.135  34.526  1.00  0.00     0.268 C 
ATOM      6  O   UNL     1      -9.201  67.337  34.772  1.00  0.00    -0.268 OA
ATOM      7  C   UNL     1     -10.274  65.248  34.255  1.00  0.00     0.106 C 
ATOM      8  C   UNL     1     -11.547  65.716  34.355  1.00  0.00     0.128 C 
ATOM      9  N   UNL     1     -12.562  64.954  33.760  1.00  0.00    -0.297 N 
ATOM     10  C   UNL     1     -13.952  65.380  33.850  1.00  0.00     0.155 C 
ATOM     11  C   UNL     1     -12.301  63.852  32.954  1.00  0.00     0.256 C 
ATOM     12  O   UNL     1     -13.149  63.324  32.236  1.00  0.00    -0.269 OA
ATOM     13  C   UNL     1     -10.925  63.272  33.028  1.00  0.00     0.040 C 
ATOM     14  C   UNL     1     -10.755  62.020  32.212  1.00  0.00     0.053 C 
ATOM     15  C   UNL     1     -10.004  63.897  33.793  1.00  0.00     0.076 C 
ENDROOT
BRANCH   1  16
ATOM     16  C   UNL     1      -8.640  61.911  34.453  1.00  0.00     0.053 A 
ATOM     17  C   UNL     1      -7.807  59.709  33.787  1.00  0.00     0.043 A 
ATOM     18  C   UNL     1      -8.347  59.165  34.956  1.00  0.00     0.026 A 
ATOM     19  C   UNL     1      -7.968  61.076  33.539  1.00  0.00     0.053 A 
ATOM     20  C   UNL     1      -9.032  59.973  35.864  1.00  0.00     0.004 A 
ATOM     21  C   UNL     1      -9.176  61.336  35.614  1.00  0.00     0.027 A 
BRANCH  17  22
ATOM     22  N   UNL     1      -7.121  58.827  32.926  1.00  0.00    -0.326 N 
ATOM     23  C   UNL     1      -5.943  58.146  33.180  1.00  0.00     0.221 C 
ATOM     24  O   UNL     1      -5.270  58.189  34.203  1.00  0.00    -0.275 OA
ATOM     25  C   UNL     1      -5.534  57.277  32.017  1.00  0.00     0.114 C 
ATOM     26  H   UNL     1      -7.553  58.661  32.026  1.00  0.00     0.169 HD
ENDBRANCH  17  22
ENDBRANCH   1  16
BRANCH   4  27
ATOM     27  C   UNL     1      -6.684  66.359  34.612  1.00  0.00     0.096 C 
ATOM     28  C   UNL     1      -6.436  67.568  33.741  1.00  0.00     0.028 C 
ATOM     29  C   UNL     1      -5.548  66.371  33.615  1.00  0.00     0.028 C 
ENDBRANCH   4  27
BRANCH   8  30
ATOM     30  N   UNL     1     -11.869  66.940  34.929  1.00  0.00    -0.338 N 
ATOM     31  H   UNL     1     -11.096  67.366  35.425  1.00  0.00     0.168 HD
BRANCH  30  32
ATOM     32  C   UNL     1     -12.713  67.924  34.349  1.00  0.00     0.076 A 
ATOM     33  C   UNL     1     -13.778  68.408  35.128  1.00  0.00     0.030 A 
ATOM     34  C   UNL     1     -12.628  68.373  33.019  1.00  0.00     0.147 A 
ATOM     35  C   UNL     1     -14.693  69.333  34.612  1.00  0.00     0.017 A 
ATOM     36  C   UNL     1     -13.533  69.295  32.495  1.00  0.00     0.056 A 
ATOM     37  C   UNL     1     -14.564  69.774  33.297  1.00  0.00     0.016 A 
ATOM     38  F   UNL     1     -11.651  67.943  32.206  1.00  0.00    -0.205 F 
ATOM     39  I   UNL     1     -15.921  71.146  32.527  1.00  0.00    -0.044 I 
ENDBRANCH  30  32
ENDBRANCH   8  30
TORSDOF 5
ENDMDL
MODEL 17
REMARK VINA RESULT:    -7.894      3.960      7.945
REMARK INTER + INTRA:          -9.815
REMARK INTER:                  -9.157
REMARK INTRA:                  -0.658
REMARK UNBOUND:                 0.386
REMARK SMILES CC(=O)Nc1cccc(-n2c(=O)n(C3CC3)c(=O)c3c(Nc4ccc(I)cc4F)n(C)c(=O)c(C)c32)c1
REMARK SMILES IDX 10 1 11 2 12 3 13 4 17 5 18 6 19 7 20 8 30 9 31 10 32 11
REMARK SMILES IDX 33 12 34 13 35 14 36 15 9 16 5 17 6 18 37 19 7 20 8 21 4 22
REMARK SMILES IDX 2 23 3 24 1 25 14 27 15 28 16 29 21 30 22 32 23 33 28 34
REMARK SMILES IDX 24 35 27 36 25 37 29 38 26 39
REMARK H PARENT 4 26 21 31
ROOT
ATOM      1  N   UNL     1      -7.056  57.268  33.309  1.00  0.00    -0.261 N 
ATOM      2  C   UNL     1      -5.856  57.159  32.569  1.00  0.00     0.336 C 
ATOM      3  O   UNL     1      -5.457  58.022  31.778  1.00  0.00    -0.247 OA
ATOM      4  N   UNL     1      -5.121  55.989  32.758  1.00  0.00    -0.256 N 
ATOM      5  C   UNL     1      -5.717  54.773  33.066  1.00  0.00     0.268 C 
ATOM      6  O   UNL     1      -5.146  53.703  32.857  1.00  0.00    -0.268 OA
ATOM      7  C   UNL     1      -7.059  54.871  33.725  1.00  0.00     0.106 C 
ATOM      8  C   UNL     1      -7.768  53.757  34.051  1.00  0.00     0.128 C 
ATOM      9  N   UNL     1      -8.824  53.909  34.959  1.00  0.00    -0.297 N 
ATOM     10  C   UNL     1      -9.644  52.764  35.333  1.00  0.00     0.155 C 
ATOM     11  C   UNL     1      -9.064  55.095  35.644  1.00  0.00     0.256 C 
ATOM     12  O   UNL     1      -9.822  55.176  36.609  1.00  0.00    -0.269 OA
ATOM     13  C   UNL     1      -8.393  56.324  35.120  1.00  0.00     0.040 C 
ATOM     14  C   UNL     1      -8.788  57.581  35.846  1.00  0.00     0.053 C 
ATOM     15  C   UNL     1      -7.535  56.196  34.084  1.00  0.00     0.076 C 
ENDROOT
BRANCH   1  16
ATOM     16  C   UNL     1      -7.872  58.435  33.029  1.00  0.00     0.053 A 
ATOM     17  C   UNL     1      -8.204  60.856  33.140  1.00  0.00     0.043 A 
ATOM     18  C   UNL     1      -9.428  60.706  32.480  1.00  0.00     0.026 A 
ATOM     19  C   UNL     1      -7.442  59.718  33.420  1.00  0.00     0.053 A 
ATOM     20  C   UNL     1      -9.879  59.442  32.101  1.00  0.00     0.004 A 
ATOM     21  C   UNL     1      -9.106  58.315  32.373  1.00  0.00     0.027 A 
BRANCH  17  22
ATOM     22  N   UNL     1      -7.815  62.169  33.480  1.00  0.00    -0.326 N 
ATOM     23  C   UNL     1      -8.026  62.827  34.679  1.00  0.00     0.221 C 
ATOM     24  O   UNL     1      -8.600  62.392  35.670  1.00  0.00    -0.275 OA
ATOM     25  C   UNL     1      -7.441  64.217  34.668  1.00  0.00     0.114 C 
ATOM     26  H   UNL     1      -7.307  62.679  32.769  1.00  0.00     0.169 HD
ENDBRANCH  17  22
ENDBRANCH   1  16
BRANCH   4  27
ATOM     27  C   UNL     1      -3.787  55.941  32.177  1.00  0.00     0.096 C 
ATOM     28  C   UNL     1      -2.672  55.163  32.836  1.00  0.00     0.028 C 
ATOM     29  C   UNL     1      -2.619  56.658  32.815  1.00  0.00     0.028 C 
ENDBRANCH   4  27
BRANCH   8  30
ATOM     30  N   UNL     1      -7.438  52.483  33.604  1.00  0.00    -0.338 N 
ATOM     31  H   UNL     1      -7.450  51.785  34.337  1.00  0.00     0.168 HD
BRANCH  30  32
ATOM     32  C   UNL     1      -7.822  51.925  32.356  1.00  0.00     0.076 A 
ATOM     33  C   UNL     1      -6.931  51.029  31.742  1.00  0.00     0.030 A 
ATOM     34  C   UNL     1      -8.977  52.282  31.637  1.00  0.00     0.147 A 
ATOM     35  C   UNL     1      -7.203  50.480  30.483  1.00  0.00     0.017 A 
ATOM     36  C   UNL     1      -9.259  51.740  30.383  1.00  0.00     0.056 A 
ATOM     37  C   UNL     1      -8.369  50.838  29.810  1.00  0.00     0.016 A 
ATOM     38  F   UNL     1      -9.868  53.146  32.146  1.00  0.00    -0.205 F 
ATOM     39  I   UNL     1      -8.776  50.027  27.942  1.00  0.00    -0.044 I 
ENDBRANCH  30  32
ENDBRANCH   8  30
TORSDOF 5
ENDMDL
MODEL 18
REMARK VINA RESULT:    -7.771      5.272      8.547
REMARK INTER + INTRA:          -9.657
REMARK INTER:                 -10.946
REMARK INTRA:                   1.290
REMARK UNBOUND:                 0.386
REMARK SMILES CC(=O)Nc1cccc(-n2c(=O)n(C3CC3)c(=O)c3c(Nc4ccc(I)cc4F)n(C)c(=O)c(C)c32)c1
REMARK SMILES IDX 10 1 11 2 12 3 13 4 17 5 18 6 19 7 20 8 30 9 31 10 32 11
REMARK SMILES IDX 33 12 34 13 35 14 36 15 9 16 5 17 6 18 37 19 7 20 8 21 4 22
REMARK SMILES IDX 2 23 3 24 1 25 14 27 15 28 16 29 21 30 22 32 23 33 28 34
REMARK SMILES IDX 24 35 27 36 25 37 29 38 26 39
REMARK H PARENT 4 26 21 31
ROOT
ATOM      1  N   UNL     1     -10.218  60.199  33.803  1.00  0.00    -0.261 N 
ATOM      2  C   UNL     1     -11.314  60.082  32.916  1.00  0.00     0.336 C 
ATOM      3  O   UNL     1     -11.492  59.112  32.172  1.00  0.00    -0.247 OA
ATOM      4  N   UNL     1     -12.208  61.152  32.899  1.00  0.00    -0.256 N 
ATOM      5  C   UNL     1     -11.816  62.459  33.155  1.00  0.00     0.268 C 
ATOM      6  O   UNL     1     -12.484  63.420  32.774  1.00  0.00    -0.268 OA
ATOM      7  C   UNL     1     -10.571  62.600  33.978  1.00  0.00     0.106 C 
ATOM      8  C   UNL     1     -10.057  63.823  34.277  1.00  0.00     0.128 C 
ATOM      9  N   UNL     1      -9.120  63.892  35.315  1.00  0.00    -0.297 N 
ATOM     10  C   UNL     1      -8.508  65.166  35.672  1.00  0.00     0.155 C 
ATOM     11  C   UNL     1      -8.827  62.811  36.138  1.00  0.00     0.256 C 
ATOM     12  O   UNL     1      -8.200  62.913  37.191  1.00  0.00    -0.269 OA
ATOM     13  C   UNL     1      -9.263  61.463  35.660  1.00  0.00     0.040 C 
ATOM     14  C   UNL     1      -8.813  60.335  36.549  1.00  0.00     0.053 C 
ATOM     15  C   UNL     1      -9.985  61.386  34.521  1.00  0.00     0.076 C 
ENDROOT
BRANCH   1  16
ATOM     16  C   UNL     1      -9.232  59.136  33.739  1.00  0.00     0.053 A 
ATOM     17  C   UNL     1      -8.571  56.836  34.244  1.00  0.00     0.043 A 
ATOM     18  C   UNL     1      -7.345  57.062  33.611  1.00  0.00     0.026 A 
ATOM     19  C   UNL     1      -9.500  57.879  34.314  1.00  0.00     0.053 A 
ATOM     20  C   UNL     1      -7.054  58.306  33.052  1.00  0.00     0.004 A 
ATOM     21  C   UNL     1      -7.992  59.336  33.116  1.00  0.00     0.027 A 
BRANCH  17  22
ATOM     22  N   UNL     1      -8.791  55.547  34.775  1.00  0.00    -0.326 N 
ATOM     23  C   UNL     1      -9.198  54.413  34.094  1.00  0.00     0.221 C 
ATOM     24  O   UNL     1      -9.450  54.319  32.899  1.00  0.00    -0.275 OA
ATOM     25  C   UNL     1      -9.300  53.216  35.006  1.00  0.00     0.114 C 
ATOM     26  H   UNL     1      -8.612  55.439  35.766  1.00  0.00     0.169 HD
ENDBRANCH  17  22
ENDBRANCH   1  16
BRANCH   4  27
ATOM     27  C   UNL     1     -13.449  60.969  32.159  1.00  0.00     0.096 C 
ATOM     28  C   UNL     1     -14.741  61.596  32.628  1.00  0.00     0.028 C 
ATOM     29  C   UNL     1     -14.571  60.111  32.695  1.00  0.00     0.028 C 
ENDBRANCH   4  27
BRANCH   8  30
ATOM     30  N   UNL     1     -10.482  65.000  33.669  1.00  0.00    -0.338 N 
ATOM     31  H   UNL     1     -11.458  65.209  33.839  1.00  0.00     0.168 HD
BRANCH  30  32
ATOM     32  C   UNL     1      -9.714  66.189  33.552  1.00  0.00     0.076 A 
ATOM     33  C   UNL     1      -8.509  66.116  32.834  1.00  0.00     0.030 A 
ATOM     34  C   UNL     1     -10.015  67.405  34.191  1.00  0.00     0.147 A 
ATOM     35  C   UNL     1      -7.662  67.225  32.722  1.00  0.00     0.017 A 
ATOM     36  C   UNL     1      -9.179  68.516  34.085  1.00  0.00     0.056 A 
ATOM     37  C   UNL     1      -8.003  68.422  33.348  1.00  0.00     0.016 A 
ATOM     38  F   UNL     1     -11.138  67.548  34.912  1.00  0.00    -0.205 F 
ATOM     39  I   UNL     1      -6.748  70.069  33.186  1.00  0.00    -0.044 I 
ENDBRANCH  30  32
ENDBRANCH   8  30
TORSDOF 5
ENDMDL
MODEL 19
REMARK VINA RESULT:    -7.742      7.891     11.706
REMARK INTER + INTRA:          -9.619
REMARK INTER:                  -9.305
REMARK INTRA:                  -0.314
REMARK UNBOUND:                 0.386
REMARK SMILES CC(=O)Nc1cccc(-n2c(=O)n(C3CC3)c(=O)c3c(Nc4ccc(I)cc4F)n(C)c(=O)c(C)c32)c1
REMARK SMILES IDX 10 1 11 2 12 3 13 4 17 5 18 6 19 7 20 8 30 9 31 10 32 11
REMARK SMILES IDX 33 12 34 13 35 14 36 15 9 16 5 17 6 18 37 19 7 20 8 21 4 22
REMARK SMILES IDX 2 23 3 24 1 25 14 27 15 28 16 29 21 30 22 32 23 33 28 34
REMARK SMILES IDX 24 35 27 36 25 37 29 38 26 39
REMARK H PARENT 4 26 21 31
ROOT
ATOM      1  N   UNL     1     -11.269  63.671  32.895  1.00  0.00    -0.261 N 
ATOM      2  C   UNL     1     -10.200  64.408  33.457  1.00  0.00     0.336 C 
ATOM      3  O   UNL     1      -9.240  63.889  34.037  1.00  0.00    -0.247 OA
ATOM      4  N   UNL     1     -10.284  65.795  33.344  1.00  0.00    -0.256 N 
ATOM      5  C   UNL     1     -11.495  66.472  33.319  1.00  0.00     0.268 C 
ATOM      6  O   UNL     1     -11.573  67.668  33.604  1.00  0.00    -0.268 OA
ATOM      7  C   UNL     1     -12.669  65.660  32.861  1.00  0.00     0.106 C 
ATOM      8  C   UNL     1     -13.920  66.190  32.819  1.00  0.00     0.128 C 
ATOM      9  N   UNL     1     -14.885  65.507  32.066  1.00  0.00    -0.297 N 
ATOM     10  C   UNL     1     -16.254  66.003  31.999  1.00  0.00     0.155 C 
ATOM     11  C   UNL     1     -14.575  64.426  31.250  1.00  0.00     0.256 C 
ATOM     12  O   UNL     1     -15.347  63.972  30.407  1.00  0.00    -0.269 OA
ATOM     13  C   UNL     1     -13.249  63.771  31.471  1.00  0.00     0.040 C 
ATOM     14  C   UNL     1     -13.035  62.545  30.626  1.00  0.00     0.053 C 
ATOM     15  C   UNL     1     -12.405  64.316  32.375  1.00  0.00     0.076 C 
ENDROOT
BRANCH   1  16
ATOM     16  C   UNL     1     -11.234  62.236  33.111  1.00  0.00     0.053 A 
ATOM     17  C   UNL     1     -10.055  60.101  32.924  1.00  0.00     0.043 A 
ATOM     18  C   UNL     1     -11.140  59.463  33.533  1.00  0.00     0.026 A 
ATOM     19  C   UNL     1     -10.116  61.481  32.707  1.00  0.00     0.053 A 
ATOM     20  C   UNL     1     -12.264  60.191  33.924  1.00  0.00     0.004 A 
ATOM     21  C   UNL     1     -12.309  61.568  33.714  1.00  0.00     0.027 A 
BRANCH  17  22
ATOM     22  N   UNL     1      -8.953  59.294  32.569  1.00  0.00    -0.326 N 
ATOM     23  C   UNL     1      -7.721  59.227  33.194  1.00  0.00     0.221 C 
ATOM     24  O   UNL     1      -7.353  59.864  34.174  1.00  0.00    -0.275 OA
ATOM     25  C   UNL     1      -6.807  58.226  32.531  1.00  0.00     0.114 C 
ATOM     26  H   UNL     1      -9.091  58.682  31.774  1.00  0.00     0.169 HD
ENDBRANCH  17  22
ENDBRANCH   1  16
BRANCH   4  27
ATOM     27  C   UNL     1      -9.106  66.565  33.720  1.00  0.00     0.096 C 
ATOM     28  C   UNL     1      -8.650  67.751  32.903  1.00  0.00     0.028 C 
ATOM     29  C   UNL     1      -7.828  66.501  32.916  1.00  0.00     0.028 C 
ENDBRANCH   4  27
BRANCH   8  30
ATOM     30  N   UNL     1     -14.255  67.406  33.404  1.00  0.00    -0.338 N 
ATOM     31  H   UNL     1     -14.868  67.973  32.830  1.00  0.00     0.168 HD
BRANCH  30  32
ATOM     32  C   UNL     1     -14.511  67.611  34.786  1.00  0.00     0.076 A 
ATOM     33  C   UNL     1     -15.054  66.538  35.512  1.00  0.00     0.030 A 
ATOM     34  C   UNL     1     -14.363  68.838  35.457  1.00  0.00     0.147 A 
ATOM     35  C   UNL     1     -15.393  66.674  36.864  1.00  0.00     0.017 A 
ATOM     36  C   UNL     1     -14.697  68.984  36.803  1.00  0.00     0.056 A 
ATOM     37  C   UNL     1     -15.210  67.897  37.504  1.00  0.00     0.016 A 
ATOM     38  F   UNL     1     -13.871  69.916  34.827  1.00  0.00    -0.205 F 
ATOM     39  I   UNL     1     -15.714  68.103  39.508  1.00  0.00    -0.044 I 
ENDBRANCH  30  32
ENDBRANCH   8  30
TORSDOF 5
ENDMDL
