MODEL 1
REMARK VINA RESULT:    -8.380      0.000      0.000
REMARK INTER + INTRA:         -13.672
REMARK INTER:                 -12.299
REMARK INTRA:                  -1.372
REMARK UNBOUND:                -1.372
REMARK SMILES CN(C)C/C=C/C(=O)Nc1cc2c(Nc3ccc(F)c(Cl)c3)ncnc2cc1O[C@H]1CCOC1
REMARK SMILES IDX 7 1 8 2 9 3 6 5 5 6 4 7 2 8 1 9 3 10 10 11 11 12 28 13 12 14
REMARK SMILES IDX 27 15 13 16 26 17 23 18 25 19 24 20 29 21 30 22 31 23 34 24
REMARK SMILES IDX 32 25 33 26 14 27 15 29 16 30 22 31 17 32 20 33 18 34 21 35
REMARK SMILES IDX 19 36
REMARK H PARENT 9 4 14 28
ROOT
ATOM      1  C   UNL     1      -0.068 -15.625 -43.509  1.00  0.00     0.248 C 
ATOM      2  O   UNL     1      -0.777 -15.510 -44.502  1.00  0.00    -0.270 OA
ATOM      3  N   UNL     1       0.837 -14.712 -43.025  1.00  0.00    -0.319 N 
ATOM      4  H   UNL     1       1.233 -14.872 -42.103  1.00  0.00     0.170 HD
ENDROOT
BRANCH   1   5
ATOM      5  C   UNL     1      -0.224 -16.829 -42.647  1.00  0.00     0.068 C 
ATOM      6  C   UNL     1      -1.230 -17.708 -42.791  1.00  0.00    -0.006 C 
BRANCH   6   7
ATOM      7  C   UNL     1      -1.551 -18.941 -41.985  1.00  0.00     0.111 C 
BRANCH   7   8
ATOM      8  N   UNL     1      -0.586 -20.017 -41.808  1.00  0.00    -0.306 NA
ATOM      9  C   UNL     1      -1.157 -21.354 -41.779  1.00  0.00     0.105 C 
ATOM     10  C   UNL     1       0.408 -19.788 -40.772  1.00  0.00     0.105 C 
ENDBRANCH   7   8
ENDBRANCH   6   7
ENDBRANCH   1   5
BRANCH   3  11
ATOM     11  C   UNL     1       1.244 -13.499 -43.619  1.00  0.00     0.085 A 
ATOM     12  C   UNL     1       0.590 -12.285 -43.419  1.00  0.00     0.044 A 
ATOM     13  C   UNL     1       2.363 -13.539 -44.463  1.00  0.00     0.145 A 
ATOM     14  C   UNL     1       1.041 -11.098 -44.053  1.00  0.00     0.045 A 
ATOM     15  C   UNL     1       2.792 -12.372 -45.099  1.00  0.00     0.077 A 
ATOM     16  C   UNL     1       0.447  -9.826 -43.914  1.00  0.00     0.141 A 
ATOM     17  C   UNL     1       2.151 -11.156 -44.907  1.00  0.00     0.080 A 
ATOM     18  N   UNL     1       0.911  -8.753 -44.579  1.00  0.00    -0.219 NA
ATOM     19  N   UNL     1       2.624 -10.090 -45.556  1.00  0.00    -0.236 NA
ATOM     20  C   UNL     1       1.976  -8.937 -45.364  1.00  0.00     0.224 A 
BRANCH  13  21
ATOM     21  O   UNL     1       2.950 -14.771 -44.626  1.00  0.00    -0.486 OA
BRANCH  21  22
ATOM     22  C   UNL     1       4.384 -14.824 -44.545  1.00  0.00     0.201 C 
ATOM     23  C   UNL     1       4.756 -14.808 -43.077  1.00  0.00     0.076 C 
ATOM     24  C   UNL     1       4.910 -16.186 -44.984  1.00  0.00     0.205 C 
ATOM     25  C   UNL     1       4.570 -16.256 -42.684  1.00  0.00     0.164 C 
ATOM     26  O   UNL     1       4.948 -17.035 -43.822  1.00  0.00    -0.377 OA
ENDBRANCH  21  22
ENDBRANCH  13  21
BRANCH  16  27
ATOM     27  N   UNL     1      -0.675  -9.677 -43.055  1.00  0.00    -0.340 N 
ATOM     28  H   UNL     1      -0.393  -9.178 -42.217  1.00  0.00     0.168 HD
BRANCH  27  29
ATOM     29  C   UNL     1      -2.017  -9.415 -43.408  1.00  0.00     0.041 A 
ATOM     30  C   UNL     1      -2.377  -8.119 -43.810  1.00  0.00     0.029 A 
ATOM     31  C   UNL     1      -3.030 -10.378 -43.282  1.00  0.00     0.049 A 
ATOM     32  C   UNL     1      -3.702  -7.806 -44.128  1.00  0.00     0.043 A 
ATOM     33  C   UNL     1      -4.355 -10.068 -43.598  1.00  0.00     0.078 A 
ATOM     34  C   UNL     1      -4.684  -8.785 -44.022  1.00  0.00     0.141 A 
ATOM     35  Cl  UNL     1      -5.572 -11.279 -43.448  1.00  0.00    -0.081 Cl
ATOM     36  F   UNL     1      -5.949  -8.465 -44.333  1.00  0.00    -0.205 F 
ENDBRANCH  27  29
ENDBRANCH  16  27
ENDBRANCH   3  11
TORSDOF 8
ENDMDL
MODEL 2
REMARK VINA RESULT:    -8.340      1.030      1.305
REMARK INTER + INTRA:         -13.613
REMARK INTER:                 -12.212
REMARK INTRA:                  -1.401
REMARK UNBOUND:                -1.372
REMARK SMILES CN(C)C/C=C/C(=O)Nc1cc2c(Nc3ccc(F)c(Cl)c3)ncnc2cc1O[C@H]1CCOC1
REMARK SMILES IDX 7 1 8 2 9 3 6 5 5 6 4 7 2 8 1 9 3 10 10 11 11 12 28 13 12 14
REMARK SMILES IDX 27 15 13 16 26 17 23 18 25 19 24 20 29 21 30 22 31 23 34 24
REMARK SMILES IDX 32 25 33 26 14 27 15 29 16 30 22 31 17 32 20 33 18 34 21 35
REMARK SMILES IDX 19 36
REMARK H PARENT 9 4 14 28
ROOT
ATOM      1  C   UNL     1      -0.040 -15.595 -43.539  1.00  0.00     0.248 C 
ATOM      2  O   UNL     1      -0.751 -15.493 -44.531  1.00  0.00    -0.270 OA
ATOM      3  N   UNL     1       0.880 -14.685 -43.079  1.00  0.00    -0.319 N 
ATOM      4  H   UNL     1       1.278 -14.831 -42.155  1.00  0.00     0.170 HD
ENDROOT
BRANCH   1   5
ATOM      5  C   UNL     1      -0.209 -16.778 -42.650  1.00  0.00     0.068 C 
ATOM      6  C   UNL     1      -1.245 -17.628 -42.750  1.00  0.00    -0.006 C 
BRANCH   6   7
ATOM      7  C   UNL     1      -1.581 -18.835 -41.911  1.00  0.00     0.111 C 
BRANCH   7   8
ATOM      8  N   UNL     1      -0.657 -19.951 -41.764  1.00  0.00    -0.306 NA
ATOM      9  C   UNL     1      -1.284 -21.261 -41.686  1.00  0.00     0.105 C 
ATOM     10  C   UNL     1       0.396 -19.752 -40.782  1.00  0.00     0.105 C 
ENDBRANCH   7   8
ENDBRANCH   6   7
ENDBRANCH   1   5
BRANCH   3  11
ATOM     11  C   UNL     1       1.301 -13.491 -43.702  1.00  0.00     0.085 A 
ATOM     12  C   UNL     1       0.660 -12.266 -43.532  1.00  0.00     0.044 A 
ATOM     13  C   UNL     1       2.421 -13.564 -44.542  1.00  0.00     0.145 A 
ATOM     14  C   UNL     1       1.126 -11.099 -44.194  1.00  0.00     0.045 A 
ATOM     15  C   UNL     1       2.864 -12.418 -45.206  1.00  0.00     0.077 A 
ATOM     16  C   UNL     1       0.546  -9.818 -44.087  1.00  0.00     0.141 A 
ATOM     17  C   UNL     1       2.236 -11.191 -45.044  1.00  0.00     0.080 A 
ATOM     18  N   UNL     1       1.023  -8.766 -44.776  1.00  0.00    -0.219 NA
ATOM     19  N   UNL     1       2.722 -10.146 -45.718  1.00  0.00    -0.236 NA
ATOM     20  C   UNL     1       2.087  -8.981 -45.555  1.00  0.00     0.224 A 
BRANCH  13  21
ATOM     21  O   UNL     1       2.995 -14.806 -44.674  1.00  0.00    -0.486 OA
BRANCH  21  22
ATOM     22  C   UNL     1       4.422 -14.882 -44.528  1.00  0.00     0.201 C 
ATOM     23  C   UNL     1       4.725 -14.884 -43.043  1.00  0.00     0.076 C 
ATOM     24  C   UNL     1       4.947 -16.249 -44.953  1.00  0.00     0.205 C 
ATOM     25  C   UNL     1       4.498 -16.332 -42.672  1.00  0.00     0.164 C 
ATOM     26  O   UNL     1       4.917 -17.108 -43.798  1.00  0.00    -0.377 OA
ENDBRANCH  21  22
ENDBRANCH  13  21
BRANCH  16  27
ATOM     27  N   UNL     1      -0.576  -9.636 -43.233  1.00  0.00    -0.340 N 
ATOM     28  H   UNL     1      -0.265  -9.248 -42.348  1.00  0.00     0.168 HD
BRANCH  27  29
ATOM     29  C   UNL     1      -1.876  -9.207 -43.578  1.00  0.00     0.041 A 
ATOM     30  C   UNL     1      -2.830 -10.162 -43.966  1.00  0.00     0.029 A 
ATOM     31  C   UNL     1      -2.230  -7.850 -43.640  1.00  0.00     0.049 A 
ATOM     32  C   UNL     1      -4.116  -9.777 -44.354  1.00  0.00     0.043 A 
ATOM     33  C   UNL     1      -3.515  -7.463 -44.029  1.00  0.00     0.078 A 
ATOM     34  C   UNL     1      -4.452  -8.428 -44.381  1.00  0.00     0.141 A 
ATOM     35  Cl  UNL     1      -3.921  -5.789 -44.078  1.00  0.00    -0.081 Cl
ATOM     36  F   UNL     1      -5.691  -8.080 -44.756  1.00  0.00    -0.205 F 
ENDBRANCH  27  29
ENDBRANCH  16  27
ENDBRANCH   3  11
TORSDOF 8
ENDMDL
MODEL 3
REMARK VINA RESULT:    -8.110      5.399      9.686
REMARK INTER + INTRA:         -13.276
REMARK INTER:                 -11.600
REMARK INTRA:                  -1.676
REMARK UNBOUND:                -1.372
REMARK SMILES CN(C)C/C=C/C(=O)Nc1cc2c(Nc3ccc(F)c(Cl)c3)ncnc2cc1O[C@H]1CCOC1
REMARK SMILES IDX 7 1 8 2 9 3 6 5 5 6 4 7 2 8 1 9 3 10 10 11 11 12 28 13 12 14
REMARK SMILES IDX 27 15 13 16 26 17 23 18 25 19 24 20 29 21 30 22 31 23 34 24
REMARK SMILES IDX 32 25 33 26 14 27 15 29 16 30 22 31 17 32 20 33 18 34 21 35
REMARK SMILES IDX 19 36
REMARK H PARENT 9 4 14 28
ROOT
ATOM      1  C   UNL     1       2.795 -15.065 -43.806  1.00  0.00     0.248 C 
ATOM      2  O   UNL     1       3.468 -16.034 -44.136  1.00  0.00    -0.270 OA
ATOM      3  N   UNL     1       1.536 -15.076 -43.259  1.00  0.00    -0.319 N 
ATOM      4  H   UNL     1       1.168 -14.206 -42.884  1.00  0.00     0.170 HD
ENDROOT
BRANCH   1   5
ATOM      5  C   UNL     1       3.392 -13.705 -43.908  1.00  0.00     0.068 C 
ATOM      6  C   UNL     1       4.183 -13.326 -44.927  1.00  0.00    -0.006 C 
BRANCH   6   7
ATOM      7  C   UNL     1       4.892 -12.016 -45.157  1.00  0.00     0.111 C 
BRANCH   7   8
ATOM      8  N   UNL     1       6.050 -11.619 -44.368  1.00  0.00    -0.306 NA
ATOM      9  C   UNL     1       6.805 -10.499 -44.906  1.00  0.00     0.105 C 
ATOM     10  C   UNL     1       6.887 -12.716 -43.909  1.00  0.00     0.105 C 
ENDBRANCH   7   8
ENDBRANCH   6   7
ENDBRANCH   1   5
BRANCH   3  11
ATOM     11  C   UNL     1       0.686 -16.186 -43.065  1.00  0.00     0.085 A 
ATOM     12  C   UNL     1       0.940 -17.199 -42.143  1.00  0.00     0.044 A 
ATOM     13  C   UNL     1      -0.465 -16.262 -43.862  1.00  0.00     0.145 A 
ATOM     14  C   UNL     1       0.051 -18.297 -42.001  1.00  0.00     0.045 A 
ATOM     15  C   UNL     1      -1.326 -17.354 -43.732  1.00  0.00     0.077 A 
ATOM     16  C   UNL     1       0.221 -19.368 -41.099  1.00  0.00     0.141 A 
ATOM     17  C   UNL     1      -1.086 -18.369 -42.816  1.00  0.00     0.080 A 
ATOM     18  N   UNL     1      -0.646 -20.395 -41.049  1.00  0.00    -0.219 NA
ATOM     19  N   UNL     1      -1.958 -19.378 -42.757  1.00  0.00    -0.236 NA
ATOM     20  C   UNL     1      -1.693 -20.348 -41.878  1.00  0.00     0.224 A 
BRANCH  13  21
ATOM     21  O   UNL     1      -0.644 -15.236 -44.760  1.00  0.00    -0.486 OA
BRANCH  21  22
ATOM     22  C   UNL     1      -0.673 -15.589 -46.152  1.00  0.00     0.201 C 
ATOM     23  C   UNL     1      -0.517 -14.309 -46.947  1.00  0.00     0.076 C 
ATOM     24  C   UNL     1       0.582 -16.358 -46.551  1.00  0.00     0.205 C 
ATOM     25  C   UNL     1       0.980 -14.095 -46.918  1.00  0.00     0.164 C 
ATOM     26  O   UNL     1       1.575 -15.395 -46.954  1.00  0.00    -0.377 OA
ENDBRANCH  21  22
ENDBRANCH  13  21
BRANCH  16  27
ATOM     27  N   UNL     1       1.343 -19.366 -40.225  1.00  0.00    -0.340 N 
ATOM     28  H   UNL     1       1.113 -19.884 -39.382  1.00  0.00     0.168 HD
BRANCH  27  29
ATOM     29  C   UNL     1       2.711 -19.467 -40.559  1.00  0.00     0.041 A 
ATOM     30  C   UNL     1       3.636 -18.633 -39.909  1.00  0.00     0.029 A 
ATOM     31  C   UNL     1       3.176 -20.304 -41.584  1.00  0.00     0.049 A 
ATOM     32  C   UNL     1       4.994 -18.671 -40.238  1.00  0.00     0.043 A 
ATOM     33  C   UNL     1       4.533 -20.343 -41.916  1.00  0.00     0.078 A 
ATOM     34  C   UNL     1       5.434 -19.529 -41.240  1.00  0.00     0.141 A 
ATOM     35  Cl  UNL     1       5.073 -21.395 -43.170  1.00  0.00    -0.081 Cl
ATOM     36  F   UNL     1       6.742 -19.551 -41.540  1.00  0.00    -0.205 F 
ENDBRANCH  27  29
ENDBRANCH  16  27
ENDBRANCH   3  11
TORSDOF 8
ENDMDL
MODEL 4
REMARK VINA RESULT:    -8.048      3.998      8.852
REMARK INTER + INTRA:         -13.185
REMARK INTER:                 -11.908
REMARK INTRA:                  -1.276
REMARK UNBOUND:                -1.372
REMARK SMILES CN(C)C/C=C/C(=O)Nc1cc2c(Nc3ccc(F)c(Cl)c3)ncnc2cc1O[C@H]1CCOC1
REMARK SMILES IDX 7 1 8 2 9 3 6 5 5 6 4 7 2 8 1 9 3 10 10 11 11 12 28 13 12 14
REMARK SMILES IDX 27 15 13 16 26 17 23 18 25 19 24 20 29 21 30 22 31 23 34 24
REMARK SMILES IDX 32 25 33 26 14 27 15 29 16 30 22 31 17 32 20 33 18 34 21 35
REMARK SMILES IDX 19 36
REMARK H PARENT 9 4 14 28
ROOT
ATOM      1  C   UNL     1      -1.549 -10.194 -44.036  1.00  0.00     0.248 C 
ATOM      2  O   UNL     1      -2.146 -10.825 -44.900  1.00  0.00    -0.270 OA
ATOM      3  N   UNL     1      -0.235 -10.335 -43.664  1.00  0.00    -0.319 N 
ATOM      4  H   UNL     1       0.167  -9.633 -43.048  1.00  0.00     0.170 HD
ENDROOT
BRANCH   1   5
ATOM      5  C   UNL     1      -2.253  -9.082 -43.340  1.00  0.00     0.068 C 
ATOM      6  C   UNL     1      -2.801  -8.041 -43.989  1.00  0.00    -0.006 C 
BRANCH   6   7
ATOM      7  C   UNL     1      -3.504  -6.827 -43.437  1.00  0.00     0.111 C 
BRANCH   7   8
ATOM      8  N   UNL     1      -3.090  -5.475 -43.782  1.00  0.00    -0.306 NA
ATOM      9  C   UNL     1      -3.831  -4.865 -44.875  1.00  0.00     0.105 C 
ATOM     10  C   UNL     1      -1.652  -5.277 -43.876  1.00  0.00     0.105 C 
ENDBRANCH   7   8
ENDBRANCH   6   7
ENDBRANCH   1   5
BRANCH   3  11
ATOM     11  C   UNL     1       0.689 -11.309 -44.098  1.00  0.00     0.085 A 
ATOM     12  C   UNL     1       0.723 -12.612 -43.605  1.00  0.00     0.044 A 
ATOM     13  C   UNL     1       1.621 -10.924 -45.072  1.00  0.00     0.145 A 
ATOM     14  C   UNL     1       1.684 -13.546 -44.075  1.00  0.00     0.045 A 
ATOM     15  C   UNL     1       2.576 -11.840 -45.517  1.00  0.00     0.077 A 
ATOM     16  C   UNL     1       1.799 -14.882 -43.639  1.00  0.00     0.141 A 
ATOM     17  C   UNL     1       2.620 -13.141 -45.036  1.00  0.00     0.080 A 
ATOM     18  N   UNL     1       2.762 -15.697 -44.104  1.00  0.00    -0.219 NA
ATOM     19  N   UNL     1       3.567 -13.953 -45.513  1.00  0.00    -0.236 NA
ATOM     20  C   UNL     1       3.595 -15.194 -45.019  1.00  0.00     0.224 A 
BRANCH  13  21
ATOM     21  O   UNL     1       1.537  -9.621 -45.502  1.00  0.00    -0.486 OA
BRANCH  21  22
ATOM     22  C   UNL     1       2.758  -8.863 -45.519  1.00  0.00     0.201 C 
ATOM     23  C   UNL     1       2.440  -7.506 -46.114  1.00  0.00     0.076 C 
ATOM     24  C   UNL     1       3.193  -8.488 -44.107  1.00  0.00     0.205 C 
ATOM     25  C   UNL     1       1.864  -6.764 -44.929  1.00  0.00     0.164 C 
ATOM     26  O   UNL     1       2.573  -7.230 -43.777  1.00  0.00    -0.377 OA
ENDBRANCH  21  22
ENDBRANCH  13  21
BRANCH  16  27
ATOM     27  N   UNL     1       0.879 -15.377 -42.675  1.00  0.00    -0.340 N 
ATOM     28  H   UNL     1       0.027 -14.825 -42.710  1.00  0.00     0.168 HD
BRANCH  27  29
ATOM     29  C   UNL     1       0.633 -16.718 -42.310  1.00  0.00     0.041 A 
ATOM     30  C   UNL     1      -0.574 -17.322 -42.699  1.00  0.00     0.029 A 
ATOM     31  C   UNL     1       1.507 -17.448 -41.490  1.00  0.00     0.049 A 
ATOM     32  C   UNL     1      -0.876 -18.634 -42.324  1.00  0.00     0.043 A 
ATOM     33  C   UNL     1       1.208 -18.759 -41.113  1.00  0.00     0.078 A 
ATOM     34  C   UNL     1       0.020 -19.346 -41.533  1.00  0.00     0.141 A 
ATOM     35  Cl  UNL     1       2.312 -19.632 -40.118  1.00  0.00    -0.081 Cl
ATOM     36  F   UNL     1      -0.288 -20.604 -41.185  1.00  0.00    -0.205 F 
ENDBRANCH  27  29
ENDBRANCH  16  27
ENDBRANCH   3  11
TORSDOF 8
ENDMDL
MODEL 5
REMARK VINA RESULT:    -7.928      3.701      8.568
REMARK INTER + INTRA:         -13.008
REMARK INTER:                 -11.490
REMARK INTRA:                  -1.518
REMARK UNBOUND:                -1.372
REMARK SMILES CN(C)C/C=C/C(=O)Nc1cc2c(Nc3ccc(F)c(Cl)c3)ncnc2cc1O[C@H]1CCOC1
REMARK SMILES IDX 7 1 8 2 9 3 6 5 5 6 4 7 2 8 1 9 3 10 10 11 11 12 28 13 12 14
REMARK SMILES IDX 27 15 13 16 26 17 23 18 25 19 24 20 29 21 30 22 31 23 34 24
REMARK SMILES IDX 32 25 33 26 14 27 15 29 16 30 22 31 17 32 20 33 18 34 21 35
REMARK SMILES IDX 19 36
REMARK H PARENT 9 4 14 28
ROOT
ATOM      1  C   UNL     1       2.557 -14.252 -44.159  1.00  0.00     0.248 C 
ATOM      2  O   UNL     1       1.971 -15.047 -44.885  1.00  0.00    -0.270 OA
ATOM      3  N   UNL     1       3.673 -14.491 -43.395  1.00  0.00    -0.319 N 
ATOM      4  H   UNL     1       4.144 -13.695 -42.972  1.00  0.00     0.170 HD
ENDROOT
BRANCH   1   5
ATOM      5  C   UNL     1       2.103 -12.834 -44.128  1.00  0.00     0.068 C 
ATOM      6  C   UNL     1       1.030 -12.422 -43.430  1.00  0.00    -0.006 C 
BRANCH   6   7
ATOM      7  C   UNL     1       0.420 -11.048 -43.329  1.00  0.00     0.111 C 
BRANCH   7   8
ATOM      8  N   UNL     1      -0.793 -10.690 -44.049  1.00  0.00    -0.306 NA
ATOM      9  C   UNL     1      -0.638 -10.568 -45.491  1.00  0.00     0.105 C 
ATOM     10  C   UNL     1      -1.566  -9.611 -43.456  1.00  0.00     0.105 C 
ENDBRANCH   7   8
ENDBRANCH   6   7
ENDBRANCH   1   5
BRANCH   3  11
ATOM     11  C   UNL     1       4.324 -15.724 -43.177  1.00  0.00     0.085 A 
ATOM     12  C   UNL     1       3.829 -16.718 -42.335  1.00  0.00     0.044 A 
ATOM     13  C   UNL     1       5.539 -15.937 -43.843  1.00  0.00     0.145 A 
ATOM     14  C   UNL     1       4.536 -17.934 -42.147  1.00  0.00     0.045 A 
ATOM     15  C   UNL     1       6.240 -17.127 -43.640  1.00  0.00     0.077 A 
ATOM     16  C   UNL     1       4.119 -18.996 -41.318  1.00  0.00     0.141 A 
ATOM     17  C   UNL     1       5.757 -18.127 -42.806  1.00  0.00     0.080 A 
ATOM     18  N   UNL     1       4.863 -20.105 -41.161  1.00  0.00    -0.219 NA
ATOM     19  N   UNL     1       6.491 -19.233 -42.666  1.00  0.00    -0.236 NA
ATOM     20  C   UNL     1       6.009 -20.170 -41.844  1.00  0.00     0.224 A 
BRANCH  13  21
ATOM     21  O   UNL     1       5.974 -14.909 -44.645  1.00  0.00    -0.486 OA
BRANCH  21  22
ATOM     22  C   UNL     1       7.225 -14.295 -44.295  1.00  0.00     0.201 C 
ATOM     23  C   UNL     1       7.439 -13.131 -45.241  1.00  0.00     0.076 C 
ATOM     24  C   UNL     1       7.132 -13.588 -42.947  1.00  0.00     0.205 C 
ATOM     25  C   UNL     1       6.601 -12.045 -44.606  1.00  0.00     0.164 C 
ATOM     26  O   UNL     1       6.692 -12.238 -43.191  1.00  0.00    -0.377 OA
ENDBRANCH  21  22
ENDBRANCH  13  21
BRANCH  16  27
ATOM     27  N   UNL     1       2.883 -18.888 -40.624  1.00  0.00    -0.340 N 
ATOM     28  H   UNL     1       2.842 -17.992 -40.147  1.00  0.00     0.168 HD
BRANCH  27  29
ATOM     29  C   UNL     1       1.607 -19.332 -41.036  1.00  0.00     0.041 A 
ATOM     30  C   UNL     1       1.339 -20.711 -41.059  1.00  0.00     0.029 A 
ATOM     31  C   UNL     1       0.622 -18.455 -41.514  1.00  0.00     0.049 A 
ATOM     32  C   UNL     1       0.104 -21.196 -41.498  1.00  0.00     0.043 A 
ATOM     33  C   UNL     1      -0.613 -18.937 -41.955  1.00  0.00     0.078 A 
ATOM     34  C   UNL     1      -0.866 -20.304 -41.942  1.00  0.00     0.141 A 
ATOM     35  Cl  UNL     1      -1.806 -17.830 -42.521  1.00  0.00    -0.081 Cl
ATOM     36  F   UNL     1      -2.045 -20.790 -42.359  1.00  0.00    -0.205 F 
ENDBRANCH  27  29
ENDBRANCH  16  27
ENDBRANCH   3  11
TORSDOF 8
ENDMDL
MODEL 6
REMARK VINA RESULT:    -7.753      3.820      8.619
REMARK INTER + INTRA:         -12.750
REMARK INTER:                 -11.356
REMARK INTRA:                  -1.395
REMARK UNBOUND:                -1.372
REMARK SMILES CN(C)C/C=C/C(=O)Nc1cc2c(Nc3ccc(F)c(Cl)c3)ncnc2cc1O[C@H]1CCOC1
REMARK SMILES IDX 7 1 8 2 9 3 6 5 5 6 4 7 2 8 1 9 3 10 10 11 11 12 28 13 12 14
REMARK SMILES IDX 27 15 13 16 26 17 23 18 25 19 24 20 29 21 30 22 31 23 34 24
REMARK SMILES IDX 32 25 33 26 14 27 15 29 16 30 22 31 17 32 20 33 18 34 21 35
REMARK SMILES IDX 19 36
REMARK H PARENT 9 4 14 28
ROOT
ATOM      1  C   UNL     1       2.374 -14.358 -44.115  1.00  0.00     0.248 C 
ATOM      2  O   UNL     1       1.862 -15.061 -44.979  1.00  0.00    -0.270 OA
ATOM      3  N   UNL     1       3.378 -14.709 -43.246  1.00  0.00    -0.319 N 
ATOM      4  H   UNL     1       3.814 -13.974 -42.695  1.00  0.00     0.170 HD
ENDROOT
BRANCH   1   5
ATOM      5  C   UNL     1       1.957 -12.933 -44.006  1.00  0.00     0.068 C 
ATOM      6  C   UNL     1       0.672 -12.541 -44.020  1.00  0.00    -0.006 C 
BRANCH   6   7
ATOM      7  C   UNL     1       0.091 -11.152 -43.962  1.00  0.00     0.111 C 
BRANCH   7   8
ATOM      8  N   UNL     1       0.191 -10.229 -45.084  1.00  0.00    -0.306 NA
ATOM      9  C   UNL     1       1.121  -9.127 -44.891  1.00  0.00     0.105 C 
ATOM     10  C   UNL     1      -1.079  -9.821 -45.661  1.00  0.00     0.105 C 
ENDBRANCH   7   8
ENDBRANCH   6   7
ENDBRANCH   1   5
BRANCH   3  11
ATOM     11  C   UNL     1       3.963 -15.981 -43.068  1.00  0.00     0.085 A 
ATOM     12  C   UNL     1       3.398 -16.986 -42.285  1.00  0.00     0.044 A 
ATOM     13  C   UNL     1       5.184 -16.224 -43.711  1.00  0.00     0.145 A 
ATOM     14  C   UNL     1       4.040 -18.243 -42.135  1.00  0.00     0.045 A 
ATOM     15  C   UNL     1       5.821 -17.455 -43.545  1.00  0.00     0.077 A 
ATOM     16  C   UNL     1       3.549 -19.319 -41.366  1.00  0.00     0.141 A 
ATOM     17  C   UNL     1       5.268 -18.465 -42.770  1.00  0.00     0.080 A 
ATOM     18  N   UNL     1       4.234 -20.469 -41.241  1.00  0.00    -0.219 NA
ATOM     19  N   UNL     1       5.944 -19.612 -42.662  1.00  0.00    -0.236 NA
ATOM     20  C   UNL     1       5.395 -20.560 -41.896  1.00  0.00     0.224 A 
BRANCH  13  21
ATOM     21  O   UNL     1       5.690 -15.184 -44.455  1.00  0.00    -0.486 OA
BRANCH  21  22
ATOM     22  C   UNL     1       6.968 -14.662 -44.056  1.00  0.00     0.201 C 
ATOM     23  C   UNL     1       7.310 -13.530 -45.004  1.00  0.00     0.076 C 
ATOM     24  C   UNL     1       6.872 -13.930 -42.722  1.00  0.00     0.205 C 
ATOM     25  C   UNL     1       6.530 -12.375 -44.418  1.00  0.00     0.164 C 
ATOM     26  O   UNL     1       6.546 -12.555 -42.999  1.00  0.00    -0.377 OA
ENDBRANCH  21  22
ENDBRANCH  13  21
BRANCH  16  27
ATOM     27  N   UNL     1       2.301 -19.181 -40.700  1.00  0.00    -0.340 N 
ATOM     28  H   UNL     1       2.330 -18.365 -40.097  1.00  0.00     0.168 HD
BRANCH  27  29
ATOM     29  C   UNL     1       1.006 -19.422 -41.210  1.00  0.00     0.041 A 
ATOM     30  C   UNL     1       0.298 -18.366 -41.806  1.00  0.00     0.029 A 
ATOM     31  C   UNL     1       0.357 -20.658 -41.062  1.00  0.00     0.049 A 
ATOM     32  C   UNL     1      -1.001 -18.551 -42.286  1.00  0.00     0.043 A 
ATOM     33  C   UNL     1      -0.942 -20.845 -41.541  1.00  0.00     0.078 A 
ATOM     34  C   UNL     1      -1.613 -19.792 -42.153  1.00  0.00     0.141 A 
ATOM     35  Cl  UNL     1      -1.704 -22.380 -41.357  1.00  0.00    -0.081 Cl
ATOM     36  F   UNL     1      -2.860 -19.950 -42.621  1.00  0.00    -0.205 F 
ENDBRANCH  27  29
ENDBRANCH  16  27
ENDBRANCH   3  11
TORSDOF 8
ENDMDL
MODEL 7
REMARK VINA RESULT:    -7.702      4.198      7.588
REMARK INTER + INTRA:         -12.676
REMARK INTER:                 -11.803
REMARK INTRA:                  -0.873
REMARK UNBOUND:                -1.372
REMARK SMILES CN(C)C/C=C/C(=O)Nc1cc2c(Nc3ccc(F)c(Cl)c3)ncnc2cc1O[C@H]1CCOC1
REMARK SMILES IDX 7 1 8 2 9 3 6 5 5 6 4 7 2 8 1 9 3 10 10 11 11 12 28 13 12 14
REMARK SMILES IDX 27 15 13 16 26 17 23 18 25 19 24 20 29 21 30 22 31 23 34 24
REMARK SMILES IDX 32 25 33 26 14 27 15 29 16 30 22 31 17 32 20 33 18 34 21 35
REMARK SMILES IDX 19 36
REMARK H PARENT 9 4 14 28
ROOT
ATOM      1  C   UNL     1       0.732 -11.331 -43.566  1.00  0.00     0.248 C 
ATOM      2  O   UNL     1       1.884 -11.008 -43.833  1.00  0.00    -0.270 OA
ATOM      3  N   UNL     1      -0.404 -10.585 -43.756  1.00  0.00    -0.319 N 
ATOM      4  H   UNL     1      -1.304 -11.044 -43.640  1.00  0.00     0.170 HD
ENDROOT
BRANCH   1   5
ATOM      5  C   UNL     1       0.469 -12.706 -43.056  1.00  0.00     0.068 C 
ATOM      6  C   UNL     1       0.474 -13.794 -43.845  1.00  0.00    -0.006 C 
BRANCH   6   7
ATOM      7  C   UNL     1       0.189 -15.233 -43.497  1.00  0.00     0.111 C 
BRANCH   7   8
ATOM      8  N   UNL     1      -0.891 -15.977 -44.128  1.00  0.00    -0.306 NA
ATOM      9  C   UNL     1      -1.436 -17.064 -43.330  1.00  0.00     0.105 C 
ATOM     10  C   UNL     1      -0.661 -16.338 -45.518  1.00  0.00     0.105 C 
ENDBRANCH   7   8
ENDBRANCH   6   7
ENDBRANCH   1   5
BRANCH   3  11
ATOM     11  C   UNL     1      -0.498  -9.244 -44.183  1.00  0.00     0.085 A 
ATOM     12  C   UNL     1       0.562  -8.540 -44.752  1.00  0.00     0.044 A 
ATOM     13  C   UNL     1      -1.729  -8.597 -44.006  1.00  0.00     0.145 A 
ATOM     14  C   UNL     1       0.409  -7.187 -45.153  1.00  0.00     0.045 A 
ATOM     15  C   UNL     1      -1.869  -7.260 -44.385  1.00  0.00     0.077 A 
ATOM     16  C   UNL     1       1.419  -6.394 -45.735  1.00  0.00     0.141 A 
ATOM     17  C   UNL     1      -0.822  -6.548 -44.955  1.00  0.00     0.080 A 
ATOM     18  N   UNL     1       1.210  -5.105 -46.055  1.00  0.00    -0.219 NA
ATOM     19  N   UNL     1      -1.039  -5.273 -45.286  1.00  0.00    -0.236 NA
ATOM     20  C   UNL     1      -0.008  -4.609 -45.817  1.00  0.00     0.224 A 
BRANCH  13  21
ATOM     21  O   UNL     1      -2.725  -9.346 -43.427  1.00  0.00    -0.486 OA
BRANCH  21  22
ATOM     22  C   UNL     1      -4.032  -9.258 -44.018  1.00  0.00     0.201 C 
ATOM     23  C   UNL     1      -4.630 -10.650 -44.003  1.00  0.00     0.076 C 
ATOM     24  C   UNL     1      -4.995  -8.497 -43.113  1.00  0.00     0.205 C 
ATOM     25  C   UNL     1      -5.155 -10.758 -42.589  1.00  0.00     0.164 C 
ATOM     26  O   UNL     1      -5.608  -9.451 -42.225  1.00  0.00    -0.377 OA
ENDBRANCH  21  22
ENDBRANCH  13  21
BRANCH  16  27
ATOM     27  N   UNL     1       2.695  -6.970 -45.983  1.00  0.00    -0.340 N 
ATOM     28  H   UNL     1       3.052  -6.628 -46.870  1.00  0.00     0.168 HD
BRANCH  27  29
ATOM     29  C   UNL     1       3.728  -7.238 -45.059  1.00  0.00     0.041 A 
ATOM     30  C   UNL     1       4.879  -7.914 -45.497  1.00  0.00     0.029 A 
ATOM     31  C   UNL     1       3.613  -6.938 -43.693  1.00  0.00     0.049 A 
ATOM     32  C   UNL     1       5.907  -8.236 -44.607  1.00  0.00     0.043 A 
ATOM     33  C   UNL     1       4.639  -7.259 -42.801  1.00  0.00     0.078 A 
ATOM     34  C   UNL     1       5.782  -7.903 -43.262  1.00  0.00     0.141 A 
ATOM     35  Cl  UNL     1       4.472  -6.861 -41.132  1.00  0.00    -0.081 Cl
ATOM     36  F   UNL     1       6.780  -8.220 -42.425  1.00  0.00    -0.205 F 
ENDBRANCH  27  29
ENDBRANCH  16  27
ENDBRANCH   3  11
TORSDOF 8
ENDMDL
MODEL 8
REMARK VINA RESULT:    -7.560      4.883      8.062
REMARK INTER + INTRA:         -12.468
REMARK INTER:                 -11.177
REMARK INTRA:                  -1.290
REMARK UNBOUND:                -1.372
REMARK SMILES CN(C)C/C=C/C(=O)Nc1cc2c(Nc3ccc(F)c(Cl)c3)ncnc2cc1O[C@H]1CCOC1
REMARK SMILES IDX 7 1 8 2 9 3 6 5 5 6 4 7 2 8 1 9 3 10 10 11 11 12 28 13 12 14
REMARK SMILES IDX 27 15 13 16 26 17 23 18 25 19 24 20 29 21 30 22 31 23 34 24
REMARK SMILES IDX 32 25 33 26 14 27 15 29 16 30 22 31 17 32 20 33 18 34 21 35
REMARK SMILES IDX 19 36
REMARK H PARENT 9 4 14 28
ROOT
ATOM      1  C   UNL     1       0.672 -13.366 -46.690  1.00  0.00     0.248 C 
ATOM      2  O   UNL     1       0.739 -12.980 -47.851  1.00  0.00    -0.270 OA
ATOM      3  N   UNL     1       1.190 -12.750 -45.578  1.00  0.00    -0.319 N 
ATOM      4  H   UNL     1       0.916 -13.101 -44.663  1.00  0.00     0.170 HD
ENDROOT
BRANCH   1   5
ATOM      5  C   UNL     1      -0.121 -14.589 -46.383  1.00  0.00     0.068 C 
ATOM      6  C   UNL     1      -0.010 -15.264 -45.226  1.00  0.00    -0.006 C 
BRANCH   6   7
ATOM      7  C   UNL     1      -0.700 -16.528 -44.781  1.00  0.00     0.111 C 
BRANCH   7   8
ATOM      8  N   UNL     1      -1.218 -16.686 -43.429  1.00  0.00    -0.306 NA
ATOM      9  C   UNL     1      -0.316 -17.349 -42.500  1.00  0.00     0.105 C 
ATOM     10  C   UNL     1      -2.589 -17.163 -43.346  1.00  0.00     0.105 C 
ENDBRANCH   7   8
ENDBRANCH   6   7
ENDBRANCH   1   5
BRANCH   3  11
ATOM     11  C   UNL     1       2.016 -11.607 -45.528  1.00  0.00     0.085 A 
ATOM     12  C   UNL     1       3.406 -11.664 -45.450  1.00  0.00     0.044 A 
ATOM     13  C   UNL     1       1.384 -10.356 -45.546  1.00  0.00     0.145 A 
ATOM     14  C   UNL     1       4.183 -10.477 -45.392  1.00  0.00     0.045 A 
ATOM     15  C   UNL     1       2.152  -9.192 -45.470  1.00  0.00     0.077 A 
ATOM     16  C   UNL     1       5.591 -10.431 -45.312  1.00  0.00     0.141 A 
ATOM     17  C   UNL     1       3.538  -9.234 -45.395  1.00  0.00     0.080 A 
ATOM     18  N   UNL     1       6.256  -9.266 -45.222  1.00  0.00    -0.219 NA
ATOM     19  N   UNL     1       4.196  -8.075 -45.322  1.00  0.00    -0.236 NA
ATOM     20  C   UNL     1       5.527  -8.147 -45.234  1.00  0.00     0.224 A 
BRANCH  13  21
ATOM     21  O   UNL     1       0.011 -10.375 -45.609  1.00  0.00    -0.486 OA
BRANCH  21  22
ATOM     22  C   UNL     1      -0.679  -9.228 -45.089  1.00  0.00     0.201 C 
ATOM     23  C   UNL     1      -1.970  -9.084 -45.869  1.00  0.00     0.076 C 
ATOM     24  C   UNL     1      -1.197  -9.491 -43.678  1.00  0.00     0.205 C 
ATOM     25  C   UNL     1      -2.874 -10.081 -45.180  1.00  0.00     0.164 C 
ATOM     26  O   UNL     1      -2.513 -10.064 -43.795  1.00  0.00    -0.377 OA
ENDBRANCH  21  22
ENDBRANCH  13  21
BRANCH  16  27
ATOM     27  N   UNL     1       6.324 -11.649 -45.319  1.00  0.00    -0.340 N 
ATOM     28  H   UNL     1       6.549 -11.901 -46.276  1.00  0.00     0.168 HD
BRANCH  27  29
ATOM     29  C   UNL     1       7.313 -12.079 -44.407  1.00  0.00     0.041 A 
ATOM     30  C   UNL     1       8.487 -12.670 -44.901  1.00  0.00     0.029 A 
ATOM     31  C   UNL     1       7.130 -12.025 -43.017  1.00  0.00     0.049 A 
ATOM     32  C   UNL     1       9.473 -13.147 -44.032  1.00  0.00     0.043 A 
ATOM     33  C   UNL     1       8.113 -12.501 -42.146  1.00  0.00     0.078 A 
ATOM     34  C   UNL     1       9.280 -13.057 -42.658  1.00  0.00     0.141 A 
ATOM     35  Cl  UNL     1       7.863 -12.405 -40.444  1.00  0.00    -0.081 Cl
ATOM     36  F   UNL     1      10.239 -13.520 -41.842  1.00  0.00    -0.205 F 
ENDBRANCH  27  29
ENDBRANCH  16  27
ENDBRANCH   3  11
TORSDOF 8
ENDMDL
MODEL 9
REMARK VINA RESULT:    -7.556      3.924      8.667
REMARK INTER + INTRA:         -12.462
REMARK INTER:                 -11.019
REMARK INTRA:                  -1.443
REMARK UNBOUND:                -1.372
REMARK SMILES CN(C)C/C=C/C(=O)Nc1cc2c(Nc3ccc(F)c(Cl)c3)ncnc2cc1O[C@H]1CCOC1
REMARK SMILES IDX 7 1 8 2 9 3 6 5 5 6 4 7 2 8 1 9 3 10 10 11 11 12 28 13 12 14
REMARK SMILES IDX 27 15 13 16 26 17 23 18 25 19 24 20 29 21 30 22 31 23 34 24
REMARK SMILES IDX 32 25 33 26 14 27 15 29 16 30 22 31 17 32 20 33 18 34 21 35
REMARK SMILES IDX 19 36
REMARK H PARENT 9 4 14 28
ROOT
ATOM      1  C   UNL     1      -2.535  -9.784 -45.381  1.00  0.00     0.248 C 
ATOM      2  O   UNL     1      -2.343  -9.858 -46.589  1.00  0.00    -0.270 OA
ATOM      3  N   UNL     1      -1.653 -10.106 -44.379  1.00  0.00    -0.319 N 
ATOM      4  H   UNL     1      -1.891  -9.839 -43.427  1.00  0.00     0.170 HD
ENDROOT
BRANCH   1   5
ATOM      5  C   UNL     1      -3.817  -9.208 -44.889  1.00  0.00     0.068 C 
ATOM      6  C   UNL     1      -4.344  -8.071 -45.374  1.00  0.00    -0.006 C 
BRANCH   6   7
ATOM      7  C   UNL     1      -5.597  -7.340 -44.961  1.00  0.00     0.111 C 
BRANCH   7   8
ATOM      8  N   UNL     1      -5.586  -6.323 -43.919  1.00  0.00    -0.306 NA
ATOM      9  C   UNL     1      -4.417  -5.458 -43.918  1.00  0.00     0.105 C 
ATOM     10  C   UNL     1      -5.960  -6.795 -42.596  1.00  0.00     0.105 C 
ENDBRANCH   7   8
ENDBRANCH   6   7
ENDBRANCH   1   5
BRANCH   3  11
ATOM     11  C   UNL     1      -0.382 -10.704 -44.504  1.00  0.00     0.085 A 
ATOM     12  C   UNL     1      -0.188 -12.075 -44.663  1.00  0.00     0.044 A 
ATOM     13  C   UNL     1       0.736  -9.859 -44.451  1.00  0.00     0.145 A 
ATOM     14  C   UNL     1       1.119 -12.620 -44.774  1.00  0.00     0.045 A 
ATOM     15  C   UNL     1       2.019 -10.402 -44.541  1.00  0.00     0.077 A 
ATOM     16  C   UNL     1       1.416 -13.989 -44.936  1.00  0.00     0.141 A 
ATOM     17  C   UNL     1       2.226 -11.765 -44.703  1.00  0.00     0.080 A 
ATOM     18  N   UNL     1       2.684 -14.435 -44.996  1.00  0.00    -0.219 NA
ATOM     19  N   UNL     1       3.486 -12.202 -44.778  1.00  0.00    -0.236 NA
ATOM     20  C   UNL     1       3.654 -13.520 -44.916  1.00  0.00     0.224 A 
BRANCH  13  21
ATOM     21  O   UNL     1       0.471  -8.521 -44.278  1.00  0.00    -0.486 OA
BRANCH  21  22
ATOM     22  C   UNL     1       0.680  -7.665 -45.413  1.00  0.00     0.201 C 
ATOM     23  C   UNL     1      -0.522  -6.749 -45.518  1.00  0.00     0.076 C 
ATOM     24  C   UNL     1       1.806  -6.671 -45.152  1.00  0.00     0.205 C 
ATOM     25  C   UNL     1      -0.194  -5.674 -44.506  1.00  0.00     0.164 C 
ATOM     26  O   UNL     1       1.225  -5.501 -44.546  1.00  0.00    -0.377 OA
ENDBRANCH  21  22
ENDBRANCH  13  21
BRANCH  16  27
ATOM     27  N   UNL     1       0.349 -14.922 -45.032  1.00  0.00    -0.340 N 
ATOM     28  H   UNL     1       0.271 -15.247 -45.991  1.00  0.00     0.168 HD
BRANCH  27  29
ATOM     29  C   UNL     1      -0.033 -15.912 -44.100  1.00  0.00     0.041 A 
ATOM     30  C   UNL     1       0.816 -16.197 -43.019  1.00  0.00     0.029 A 
ATOM     31  C   UNL     1      -1.188 -16.693 -44.262  1.00  0.00     0.049 A 
ATOM     32  C   UNL     1       0.497 -17.197 -42.096  1.00  0.00     0.043 A 
ATOM     33  C   UNL     1      -1.510 -17.694 -43.342  1.00  0.00     0.078 A 
ATOM     34  C   UNL     1      -0.667 -17.939 -42.263  1.00  0.00     0.141 A 
ATOM     35  Cl  UNL     1      -2.944 -18.624 -43.562  1.00  0.00    -0.081 Cl
ATOM     36  F   UNL     1      -0.957 -18.894 -41.366  1.00  0.00    -0.205 F 
ENDBRANCH  27  29
ENDBRANCH  16  27
ENDBRANCH   3  11
TORSDOF 8
ENDMDL
MODEL 10
REMARK VINA RESULT:    -7.537      4.086      7.184
REMARK INTER + INTRA:         -12.434
REMARK INTER:                 -11.223
REMARK INTRA:                  -1.210
REMARK UNBOUND:                -1.372
REMARK SMILES CN(C)C/C=C/C(=O)Nc1cc2c(Nc3ccc(F)c(Cl)c3)ncnc2cc1O[C@H]1CCOC1
REMARK SMILES IDX 7 1 8 2 9 3 6 5 5 6 4 7 2 8 1 9 3 10 10 11 11 12 28 13 12 14
REMARK SMILES IDX 27 15 13 16 26 17 23 18 25 19 24 20 29 21 30 22 31 23 34 24
REMARK SMILES IDX 32 25 33 26 14 27 15 29 16 30 22 31 17 32 20 33 18 34 21 35
REMARK SMILES IDX 19 36
REMARK H PARENT 9 4 14 28
ROOT
ATOM      1  C   UNL     1       0.607 -10.501 -44.160  1.00  0.00     0.248 C 
ATOM      2  O   UNL     1       0.976 -10.410 -42.995  1.00  0.00    -0.270 OA
ATOM      3  N   UNL     1       1.322 -11.001 -45.221  1.00  0.00    -0.319 N 
ATOM      4  H   UNL     1       0.830 -11.165 -46.096  1.00  0.00     0.170 HD
ENDROOT
BRANCH   1   5
ATOM      5  C   UNL     1      -0.791 -10.122 -44.505  1.00  0.00     0.068 C 
ATOM      6  C   UNL     1      -1.566  -9.372 -43.703  1.00  0.00    -0.006 C 
BRANCH   6   7
ATOM      7  C   UNL     1      -2.999  -8.939 -43.883  1.00  0.00     0.111 C 
BRANCH   7   8
ATOM      8  N   UNL     1      -4.075  -9.486 -43.070  1.00  0.00    -0.306 NA
ATOM      9  C   UNL     1      -4.728 -10.661 -43.626  1.00  0.00     0.105 C 
ATOM     10  C   UNL     1      -5.005  -8.504 -42.536  1.00  0.00     0.105 C 
ENDBRANCH   7   8
ENDBRANCH   6   7
ENDBRANCH   1   5
BRANCH   3  11
ATOM     11  C   UNL     1       2.673 -11.406 -45.240  1.00  0.00     0.085 A 
ATOM     12  C   UNL     1       3.745 -10.516 -45.251  1.00  0.00     0.044 A 
ATOM     13  C   UNL     1       2.931 -12.784 -45.260  1.00  0.00     0.145 A 
ATOM     14  C   UNL     1       5.084 -10.986 -45.281  1.00  0.00     0.045 A 
ATOM     15  C   UNL     1       4.249 -13.241 -45.308  1.00  0.00     0.077 A 
ATOM     16  C   UNL     1       6.232 -10.166 -45.295  1.00  0.00     0.141 A 
ATOM     17  C   UNL     1       5.326 -12.365 -45.317  1.00  0.00     0.080 A 
ATOM     18  N   UNL     1       7.471 -10.686 -45.361  1.00  0.00    -0.219 NA
ATOM     19  N   UNL     1       6.555 -12.885 -45.367  1.00  0.00    -0.236 NA
ATOM     20  C   UNL     1       7.571 -12.018 -45.392  1.00  0.00     0.224 A 
BRANCH  13  21
ATOM     21  O   UNL     1       1.826 -13.603 -45.261  1.00  0.00    -0.486 OA
BRANCH  21  22
ATOM     22  C   UNL     1       1.452 -14.186 -46.520  1.00  0.00     0.201 C 
ATOM     23  C   UNL     1       1.465 -15.691 -46.345  1.00  0.00     0.076 C 
ATOM     24  C   UNL     1      -0.018 -13.923 -46.832  1.00  0.00     0.205 C 
ATOM     25  C   UNL     1       0.123 -15.949 -45.698  1.00  0.00     0.164 C 
ATOM     26  O   UNL     1      -0.786 -14.997 -46.259  1.00  0.00    -0.377 OA
ENDBRANCH  21  22
ENDBRANCH  13  21
BRANCH  16  27
ATOM     27  N   UNL     1       6.075  -8.754 -45.246  1.00  0.00    -0.340 N 
ATOM     28  H   UNL     1       5.923  -8.400 -46.185  1.00  0.00     0.168 HD
BRANCH  27  29
ATOM     29  C   UNL     1       5.408  -7.983 -44.269  1.00  0.00     0.041 A 
ATOM     30  C   UNL     1       5.789  -8.108 -42.922  1.00  0.00     0.029 A 
ATOM     31  C   UNL     1       4.313  -7.161 -44.577  1.00  0.00     0.049 A 
ATOM     32  C   UNL     1       5.128  -7.394 -41.919  1.00  0.00     0.043 A 
ATOM     33  C   UNL     1       3.651  -6.447 -43.575  1.00  0.00     0.078 A 
ATOM     34  C   UNL     1       4.063  -6.565 -42.252  1.00  0.00     0.141 A 
ATOM     35  Cl  UNL     1       2.320  -5.434 -43.990  1.00  0.00    -0.081 Cl
ATOM     36  F   UNL     1       3.444  -5.888 -41.274  1.00  0.00    -0.205 F 
ENDBRANCH  27  29
ENDBRANCH  16  27
ENDBRANCH   3  11
TORSDOF 8
ENDMDL
MODEL 11
REMARK VINA RESULT:    -7.475      5.949      9.090
REMARK INTER + INTRA:         -12.344
REMARK INTER:                 -10.897
REMARK INTRA:                  -1.447
REMARK UNBOUND:                -1.372
REMARK SMILES CN(C)C/C=C/C(=O)Nc1cc2c(Nc3ccc(F)c(Cl)c3)ncnc2cc1O[C@H]1CCOC1
REMARK SMILES IDX 7 1 8 2 9 3 6 5 5 6 4 7 2 8 1 9 3 10 10 11 11 12 28 13 12 14
REMARK SMILES IDX 27 15 13 16 26 17 23 18 25 19 24 20 29 21 30 22 31 23 34 24
REMARK SMILES IDX 32 25 33 26 14 27 15 29 16 30 22 31 17 32 20 33 18 34 21 35
REMARK SMILES IDX 19 36
REMARK H PARENT 9 4 14 28
ROOT
ATOM      1  C   UNL     1       4.926 -16.923 -42.461  1.00  0.00     0.248 C 
ATOM      2  O   UNL     1       5.666 -17.415 -43.304  1.00  0.00    -0.270 OA
ATOM      3  N   UNL     1       4.492 -15.622 -42.396  1.00  0.00    -0.319 N 
ATOM      4  H   UNL     1       3.751 -15.396 -41.737  1.00  0.00     0.170 HD
ENDROOT
BRANCH   1   5
ATOM      5  C   UNL     1       4.334 -17.805 -41.418  1.00  0.00     0.068 C 
ATOM      6  C   UNL     1       3.010 -17.914 -41.215  1.00  0.00    -0.006 C 
BRANCH   6   7
ATOM      7  C   UNL     1       2.260 -18.721 -40.186  1.00  0.00     0.111 C 
BRANCH   7   8
ATOM      8  N   UNL     1       1.504 -19.913 -40.545  1.00  0.00    -0.306 NA
ATOM      9  C   UNL     1       2.166 -20.798 -41.490  1.00  0.00     0.105 C 
ATOM     10  C   UNL     1       0.101 -19.684 -40.850  1.00  0.00     0.105 C 
ENDBRANCH   7   8
ENDBRANCH   6   7
ENDBRANCH   1   5
BRANCH   3  11
ATOM     11  C   UNL     1       4.890 -14.535 -43.203  1.00  0.00     0.085 A 
ATOM     12  C   UNL     1       6.138 -13.923 -43.112  1.00  0.00     0.044 A 
ATOM     13  C   UNL     1       3.960 -14.051 -44.135  1.00  0.00     0.145 A 
ATOM     14  C   UNL     1       6.477 -12.826 -43.945  1.00  0.00     0.045 A 
ATOM     15  C   UNL     1       4.291 -12.959 -44.939  1.00  0.00     0.077 A 
ATOM     16  C   UNL     1       7.711 -12.142 -43.927  1.00  0.00     0.141 A 
ATOM     17  C   UNL     1       5.532 -12.342 -44.860  1.00  0.00     0.080 A 
ATOM     18  N   UNL     1       7.945 -11.084 -44.723  1.00  0.00    -0.219 NA
ATOM     19  N   UNL     1       5.767 -11.302 -45.663  1.00  0.00    -0.236 NA
ATOM     20  C   UNL     1       6.964 -10.718 -45.552  1.00  0.00     0.224 A 
BRANCH  13  21
ATOM     21  O   UNL     1       2.744 -14.692 -44.161  1.00  0.00    -0.486 OA
BRANCH  21  22
ATOM     22  C   UNL     1       1.673 -14.027 -44.849  1.00  0.00     0.201 C 
ATOM     23  C   UNL     1       1.071 -15.022 -45.820  1.00  0.00     0.076 C 
ATOM     24  C   UNL     1       0.500 -13.758 -43.912  1.00  0.00     0.205 C 
ATOM     25  C   UNL     1       0.150 -15.822 -44.928  1.00  0.00     0.164 C 
ATOM     26  O   UNL     1      -0.366 -14.908 -43.955  1.00  0.00    -0.377 OA
ENDBRANCH  21  22
ENDBRANCH  13  21
BRANCH  16  27
ATOM     27  N   UNL     1       8.730 -12.579 -43.037  1.00  0.00    -0.340 N 
ATOM     28  H   UNL     1       8.313 -12.835 -42.148  1.00  0.00     0.168 HD
BRANCH  27  29
ATOM     29  C   UNL     1       9.877 -13.348 -43.332  1.00  0.00     0.041 A 
ATOM     30  C   UNL     1      10.736 -13.722 -42.286  1.00  0.00     0.029 A 
ATOM     31  C   UNL     1      10.245 -13.677 -44.646  1.00  0.00     0.049 A 
ATOM     32  C   UNL     1      11.903 -14.448 -42.539  1.00  0.00     0.043 A 
ATOM     33  C   UNL     1      11.412 -14.402 -44.901  1.00  0.00     0.078 A 
ATOM     34  C   UNL     1      12.233 -14.786 -43.847  1.00  0.00     0.141 A 
ATOM     35  Cl  UNL     1      11.827 -14.804 -46.525  1.00  0.00    -0.081 Cl
ATOM     36  F   UNL     1      13.357 -15.484 -44.068  1.00  0.00    -0.205 F 
ENDBRANCH  27  29
ENDBRANCH  16  27
ENDBRANCH   3  11
TORSDOF 8
ENDMDL
MODEL 12
REMARK VINA RESULT:    -7.473      3.233      4.897
REMARK INTER + INTRA:         -12.340
REMARK INTER:                 -10.977
REMARK INTRA:                  -1.363
REMARK UNBOUND:                -1.372
REMARK SMILES CN(C)C/C=C/C(=O)Nc1cc2c(Nc3ccc(F)c(Cl)c3)ncnc2cc1O[C@H]1CCOC1
REMARK SMILES IDX 7 1 8 2 9 3 6 5 5 6 4 7 2 8 1 9 3 10 10 11 11 12 28 13 12 14
REMARK SMILES IDX 27 15 13 16 26 17 23 18 25 19 24 20 29 21 30 22 31 23 34 24
REMARK SMILES IDX 32 25 33 26 14 27 15 29 16 30 22 31 17 32 20 33 18 34 21 35
REMARK SMILES IDX 19 36
REMARK H PARENT 9 4 14 28
ROOT
ATOM      1  C   UNL     1       1.617 -11.608 -43.888  1.00  0.00     0.248 C 
ATOM      2  O   UNL     1       0.971 -11.404 -42.867  1.00  0.00    -0.270 OA
ATOM      3  N   UNL     1       2.054 -10.675 -44.795  1.00  0.00    -0.319 N 
ATOM      4  H   UNL     1       2.717 -10.971 -45.507  1.00  0.00     0.170 HD
ENDROOT
BRANCH   1   5
ATOM      5  C   UNL     1       2.078 -12.993 -44.184  1.00  0.00     0.068 C 
ATOM      6  C   UNL     1       1.411 -13.830 -44.996  1.00  0.00    -0.006 C 
BRANCH   6   7
ATOM      7  C   UNL     1       1.717 -15.260 -45.362  1.00  0.00     0.111 C 
BRANCH   7   8
ATOM      8  N   UNL     1       0.758 -16.094 -46.074  1.00  0.00    -0.306 NA
ATOM      9  C   UNL     1       0.829 -16.009 -47.524  1.00  0.00     0.105 C 
ATOM     10  C   UNL     1      -0.600 -16.050 -45.556  1.00  0.00     0.105 C 
ENDBRANCH   7   8
ENDBRANCH   6   7
ENDBRANCH   1   5
BRANCH   3  11
ATOM     11  C   UNL     1       1.761  -9.295 -44.826  1.00  0.00     0.085 A 
ATOM     12  C   UNL     1       0.498  -8.782 -45.116  1.00  0.00     0.044 A 
ATOM     13  C   UNL     1       2.813  -8.407 -44.560  1.00  0.00     0.145 A 
ATOM     14  C   UNL     1       0.267  -7.381 -45.142  1.00  0.00     0.045 A 
ATOM     15  C   UNL     1       2.585  -7.030 -44.606  1.00  0.00     0.077 A 
ATOM     16  C   UNL     1      -0.971  -6.768 -45.424  1.00  0.00     0.141 A 
ATOM     17  C   UNL     1       1.331  -6.506 -44.891  1.00  0.00     0.080 A 
ATOM     18  N   UNL     1      -1.104  -5.430 -45.468  1.00  0.00    -0.219 NA
ATOM     19  N   UNL     1       1.200  -5.178 -44.917  1.00  0.00    -0.236 NA
ATOM     20  C   UNL     1      -0.013  -4.702 -45.210  1.00  0.00     0.224 A 
BRANCH  13  21
ATOM     21  O   UNL     1       4.034  -8.982 -44.297  1.00  0.00    -0.486 OA
BRANCH  21  22
ATOM     22  C   UNL     1       5.193  -8.312 -44.816  1.00  0.00     0.201 C 
ATOM     23  C   UNL     1       6.062  -7.928 -43.635  1.00  0.00     0.076 C 
ATOM     24  C   UNL     1       6.100  -9.282 -45.566  1.00  0.00     0.205 C 
ATOM     25  C   UNL     1       6.798  -9.217 -43.347  1.00  0.00     0.164 C 
ATOM     26  O   UNL     1       7.019  -9.848 -44.613  1.00  0.00    -0.377 OA
ENDBRANCH  21  22
ENDBRANCH  13  21
BRANCH  16  27
ATOM     27  N   UNL     1      -2.107  -7.585 -45.677  1.00  0.00    -0.340 N 
ATOM     28  H   UNL     1      -1.851  -8.326 -46.322  1.00  0.00     0.168 HD
BRANCH  27  29
ATOM     29  C   UNL     1      -3.113  -7.987 -44.771  1.00  0.00     0.041 A 
ATOM     30  C   UNL     1      -3.591  -7.063 -43.827  1.00  0.00     0.029 A 
ATOM     31  C   UNL     1      -3.591  -9.305 -44.714  1.00  0.00     0.049 A 
ATOM     32  C   UNL     1      -4.556  -7.432 -42.886  1.00  0.00     0.043 A 
ATOM     33  C   UNL     1      -4.556  -9.676 -43.774  1.00  0.00     0.078 A 
ATOM     34  C   UNL     1      -5.035  -8.737 -42.867  1.00  0.00     0.141 A 
ATOM     35  Cl  UNL     1      -5.134 -11.299 -43.741  1.00  0.00    -0.081 Cl
ATOM     36  F   UNL     1      -5.962  -9.070 -41.956  1.00  0.00    -0.205 F 
ENDBRANCH  27  29
ENDBRANCH  16  27
ENDBRANCH   3  11
TORSDOF 8
ENDMDL
MODEL 13
REMARK VINA RESULT:    -7.465      4.789      7.885
REMARK INTER + INTRA:         -12.329
REMARK INTER:                 -10.947
REMARK INTRA:                  -1.382
REMARK UNBOUND:                -1.372
REMARK SMILES CN(C)C/C=C/C(=O)Nc1cc2c(Nc3ccc(F)c(Cl)c3)ncnc2cc1O[C@H]1CCOC1
REMARK SMILES IDX 7 1 8 2 9 3 6 5 5 6 4 7 2 8 1 9 3 10 10 11 11 12 28 13 12 14
REMARK SMILES IDX 27 15 13 16 26 17 23 18 25 19 24 20 29 21 30 22 31 23 34 24
REMARK SMILES IDX 32 25 33 26 14 27 15 29 16 30 22 31 17 32 20 33 18 34 21 35
REMARK SMILES IDX 19 36
REMARK H PARENT 9 4 14 28
ROOT
ATOM      1  C   UNL     1       0.879 -11.256 -43.894  1.00  0.00     0.248 C 
ATOM      2  O   UNL     1       1.128 -10.930 -42.739  1.00  0.00    -0.270 OA
ATOM      3  N   UNL     1       0.965 -10.469 -45.015  1.00  0.00    -0.319 N 
ATOM      4  H   UNL     1       0.886 -10.919 -45.924  1.00  0.00     0.170 HD
ENDROOT
BRANCH   1   5
ATOM      5  C   UNL     1       0.522 -12.673 -44.181  1.00  0.00     0.068 C 
ATOM      6  C   UNL     1       0.758 -13.677 -43.320  1.00  0.00    -0.006 C 
BRANCH   6   7
ATOM      7  C   UNL     1       0.498 -15.154 -43.474  1.00  0.00     0.111 C 
BRANCH   7   8
ATOM      8  N   UNL     1      -0.662 -15.660 -44.194  1.00  0.00    -0.306 NA
ATOM      9  C   UNL     1      -1.424 -16.680 -43.491  1.00  0.00     0.105 C 
ATOM     10  C   UNL     1      -0.428 -15.974 -45.594  1.00  0.00     0.105 C 
ENDBRANCH   7   8
ENDBRANCH   6   7
ENDBRANCH   1   5
BRANCH   3  11
ATOM     11  C   UNL     1       1.238  -9.086 -45.084  1.00  0.00     0.085 A 
ATOM     12  C   UNL     1       2.513  -8.561 -45.281  1.00  0.00     0.044 A 
ATOM     13  C   UNL     1       0.155  -8.208 -44.932  1.00  0.00     0.145 A 
ATOM     14  C   UNL     1       2.727  -7.159 -45.330  1.00  0.00     0.045 A 
ATOM     15  C   UNL     1       0.373  -6.829 -44.962  1.00  0.00     0.077 A 
ATOM     16  C   UNL     1       3.976  -6.534 -45.524  1.00  0.00     0.141 A 
ATOM     17  C   UNL     1       1.638  -6.293 -45.160  1.00  0.00     0.080 A 
ATOM     18  N   UNL     1       4.105  -5.195 -45.521  1.00  0.00    -0.219 NA
ATOM     19  N   UNL     1       1.760  -4.964 -45.173  1.00  0.00    -0.236 NA
ATOM     20  C   UNL     1       2.991  -4.477 -45.349  1.00  0.00     0.224 A 
BRANCH  13  21
ATOM     21  O   UNL     1      -1.071  -8.795 -44.727  1.00  0.00    -0.486 OA
BRANCH  21  22
ATOM     22  C   UNL     1      -1.938  -8.904 -45.868  1.00  0.00     0.201 C 
ATOM     23  C   UNL     1      -2.580 -10.276 -45.819  1.00  0.00     0.076 C 
ATOM     24  C   UNL     1      -3.149  -7.989 -45.728  1.00  0.00     0.205 C 
ATOM     25  C   UNL     1      -3.712 -10.064 -44.838  1.00  0.00     0.164 C 
ATOM     26  O   UNL     1      -4.179  -8.727 -45.043  1.00  0.00    -0.377 OA
ENDBRANCH  21  22
ENDBRANCH  13  21
BRANCH  16  27
ATOM     27  N   UNL     1       5.130  -7.340 -45.719  1.00  0.00    -0.340 N 
ATOM     28  H   UNL     1       5.782  -6.853 -46.327  1.00  0.00     0.168 HD
BRANCH  27  29
ATOM     29  C   UNL     1       5.789  -8.166 -44.782  1.00  0.00     0.041 A 
ATOM     30  C   UNL     1       6.006  -7.684 -43.481  1.00  0.00     0.029 A 
ATOM     31  C   UNL     1       6.320  -9.419 -45.125  1.00  0.00     0.049 A 
ATOM     32  C   UNL     1       6.690  -8.453 -42.534  1.00  0.00     0.043 A 
ATOM     33  C   UNL     1       7.004 -10.188 -44.181  1.00  0.00     0.078 A 
ATOM     34  C   UNL     1       7.183  -9.703 -42.890  1.00  0.00     0.141 A 
ATOM     35  Cl  UNL     1       7.630 -11.730 -44.632  1.00  0.00    -0.081 Cl
ATOM     36  F   UNL     1       7.835 -10.425 -41.967  1.00  0.00    -0.205 F 
ENDBRANCH  27  29
ENDBRANCH  16  27
ENDBRANCH   3  11
TORSDOF 8
ENDMDL
MODEL 14
REMARK VINA RESULT:    -7.437      5.613      8.659
REMARK INTER + INTRA:         -12.288
REMARK INTER:                 -11.113
REMARK INTRA:                  -1.174
REMARK UNBOUND:                -1.372
REMARK SMILES CN(C)C/C=C/C(=O)Nc1cc2c(Nc3ccc(F)c(Cl)c3)ncnc2cc1O[C@H]1CCOC1
REMARK SMILES IDX 7 1 8 2 9 3 6 5 5 6 4 7 2 8 1 9 3 10 10 11 11 12 28 13 12 14
REMARK SMILES IDX 27 15 13 16 26 17 23 18 25 19 24 20 29 21 30 22 31 23 34 24
REMARK SMILES IDX 32 25 33 26 14 27 15 29 16 30 22 31 17 32 20 33 18 34 21 35
REMARK SMILES IDX 19 36
REMARK H PARENT 9 4 14 28
ROOT
ATOM      1  C   UNL     1       5.454 -15.671 -43.462  1.00  0.00     0.248 C 
ATOM      2  O   UNL     1       5.140 -16.207 -44.518  1.00  0.00    -0.270 OA
ATOM      3  N   UNL     1       5.255 -16.155 -42.193  1.00  0.00    -0.319 N 
ATOM      4  H   UNL     1       5.713 -15.679 -41.420  1.00  0.00     0.170 HD
ENDROOT
BRANCH   1   5
ATOM      5  C   UNL     1       6.213 -14.390 -43.503  1.00  0.00     0.068 C 
ATOM      6  C   UNL     1       7.556 -14.335 -43.531  1.00  0.00    -0.006 C 
BRANCH   6   7
ATOM      7  C   UNL     1       8.467 -13.134 -43.532  1.00  0.00     0.111 C 
BRANCH   7   8
ATOM      8  N   UNL     1       8.972 -12.551 -42.297  1.00  0.00    -0.306 NA
ATOM      9  C   UNL     1       9.684 -13.475 -41.428  1.00  0.00     0.105 C 
ATOM     10  C   UNL     1       8.031 -11.698 -41.589  1.00  0.00     0.105 C 
ENDBRANCH   7   8
ENDBRANCH   6   7
ENDBRANCH   1   5
BRANCH   3  11
ATOM     11  C   UNL     1       4.542 -17.311 -41.810  1.00  0.00     0.085 A 
ATOM     12  C   UNL     1       3.151 -17.392 -41.804  1.00  0.00     0.044 A 
ATOM     13  C   UNL     1       5.292 -18.424 -41.405  1.00  0.00     0.145 A 
ATOM     14  C   UNL     1       2.491 -18.581 -41.398  1.00  0.00     0.045 A 
ATOM     15  C   UNL     1       4.637 -19.585 -40.988  1.00  0.00     0.077 A 
ATOM     16  C   UNL     1       1.092 -18.760 -41.357  1.00  0.00     0.141 A 
ATOM     17  C   UNL     1       3.252 -19.680 -40.979  1.00  0.00     0.080 A 
ATOM     18  N   UNL     1       0.538 -19.906 -40.924  1.00  0.00    -0.219 NA
ATOM     19  N   UNL     1       2.706 -20.825 -40.564  1.00  0.00    -0.236 NA
ATOM     20  C   UNL     1       1.371 -20.882 -40.551  1.00  0.00     0.224 A 
BRANCH  13  21
ATOM     21  O   UNL     1       6.658 -18.269 -41.422  1.00  0.00    -0.486 OA
BRANCH  21  22
ATOM     22  C   UNL     1       7.420 -19.293 -42.080  1.00  0.00     0.201 C 
ATOM     23  C   UNL     1       7.389 -18.996 -43.566  1.00  0.00     0.076 C 
ATOM     24  C   UNL     1       8.907 -19.159 -41.768  1.00  0.00     0.205 C 
ATOM     25  C   UNL     1       8.469 -17.947 -43.705  1.00  0.00     0.164 C 
ATOM     26  O   UNL     1       9.484 -18.283 -42.754  1.00  0.00    -0.377 OA
ENDBRANCH  21  22
ENDBRANCH  13  21
BRANCH  16  27
ATOM     27  N   UNL     1       0.246 -17.698 -41.779  1.00  0.00    -0.340 N 
ATOM     28  H   UNL     1       0.806 -16.982 -42.232  1.00  0.00     0.168 HD
BRANCH  27  29
ATOM     29  C   UNL     1      -1.057 -17.780 -42.317  1.00  0.00     0.041 A 
ATOM     30  C   UNL     1      -1.461 -16.834 -43.274  1.00  0.00     0.029 A 
ATOM     31  C   UNL     1      -2.001 -18.714 -41.866  1.00  0.00     0.049 A 
ATOM     32  C   UNL     1      -2.755 -16.853 -43.802  1.00  0.00     0.043 A 
ATOM     33  C   UNL     1      -3.295 -18.735 -42.392  1.00  0.00     0.078 A 
ATOM     34  C   UNL     1      -3.664 -17.806 -43.359  1.00  0.00     0.141 A 
ATOM     35  Cl  UNL     1      -4.425 -19.907 -41.826  1.00  0.00    -0.081 Cl
ATOM     36  F   UNL     1      -4.900 -17.808 -43.879  1.00  0.00    -0.205 F 
ENDBRANCH  27  29
ENDBRANCH  16  27
ENDBRANCH   3  11
TORSDOF 8
ENDMDL
MODEL 15
REMARK VINA RESULT:    -7.429      4.723      7.735
REMARK INTER + INTRA:         -12.275
REMARK INTER:                 -10.860
REMARK INTRA:                  -1.415
REMARK UNBOUND:                -1.372
REMARK SMILES CN(C)C/C=C/C(=O)Nc1cc2c(Nc3ccc(F)c(Cl)c3)ncnc2cc1O[C@H]1CCOC1
REMARK SMILES IDX 7 1 8 2 9 3 6 5 5 6 4 7 2 8 1 9 3 10 10 11 11 12 28 13 12 14
REMARK SMILES IDX 27 15 13 16 26 17 23 18 25 19 24 20 29 21 30 22 31 23 34 24
REMARK SMILES IDX 32 25 33 26 14 27 15 29 16 30 22 31 17 32 20 33 18 34 21 35
REMARK SMILES IDX 19 36
REMARK H PARENT 9 4 14 28
ROOT
ATOM      1  C   UNL     1       1.055 -12.270 -44.069  1.00  0.00     0.248 C 
ATOM      2  O   UNL     1       1.202 -11.903 -42.908  1.00  0.00    -0.270 OA
ATOM      3  N   UNL     1       1.485 -11.627 -45.203  1.00  0.00    -0.319 N 
ATOM      4  H   UNL     1       1.436 -12.129 -46.086  1.00  0.00     0.170 HD
ENDROOT
BRANCH   1   5
ATOM      5  C   UNL     1       0.421 -13.591 -44.332  1.00  0.00     0.068 C 
ATOM      6  C   UNL     1       0.360 -14.571 -43.414  1.00  0.00    -0.006 C 
BRANCH   6   7
ATOM      7  C   UNL     1      -0.202 -15.965 -43.532  1.00  0.00     0.111 C 
BRANCH   7   8
ATOM      8  N   UNL     1      -0.172 -16.903 -42.419  1.00  0.00    -0.306 NA
ATOM      9  C   UNL     1       1.150 -17.167 -41.875  1.00  0.00     0.105 C 
ATOM     10  C   UNL     1      -0.974 -18.102 -42.603  1.00  0.00     0.105 C 
ENDBRANCH   7   8
ENDBRANCH   6   7
ENDBRANCH   1   5
BRANCH   3  11
ATOM     11  C   UNL     1       2.081 -10.352 -45.303  1.00  0.00     0.085 A 
ATOM     12  C   UNL     1       3.459 -10.143 -45.295  1.00  0.00     0.044 A 
ATOM     13  C   UNL     1       1.224  -9.247 -45.401  1.00  0.00     0.145 A 
ATOM     14  C   UNL     1       3.999  -8.834 -45.388  1.00  0.00     0.045 A 
ATOM     15  C   UNL     1       1.760  -7.960 -45.473  1.00  0.00     0.077 A 
ATOM     16  C   UNL     1       5.374  -8.521 -45.388  1.00  0.00     0.141 A 
ATOM     17  C   UNL     1       3.131  -7.738 -45.469  1.00  0.00     0.080 A 
ATOM     18  N   UNL     1       5.811  -7.250 -45.442  1.00  0.00    -0.219 NA
ATOM     19  N   UNL     1       3.560  -6.476 -45.539  1.00  0.00    -0.236 NA
ATOM     20  C   UNL     1       4.883  -6.291 -45.517  1.00  0.00     0.224 A 
BRANCH  13  21
ATOM     21  O   UNL     1      -0.122  -9.526 -45.388  1.00  0.00    -0.486 OA
BRANCH  21  22
ATOM     22  C   UNL     1      -0.943  -8.724 -44.525  1.00  0.00     0.201 C 
ATOM     23  C   UNL     1      -2.105  -8.212 -45.352  1.00  0.00     0.076 C 
ATOM     24  C   UNL     1      -1.656  -9.584 -43.487  1.00  0.00     0.205 C 
ATOM     25  C   UNL     1      -3.051  -9.393 -45.340  1.00  0.00     0.164 C 
ATOM     26  O   UNL     1      -2.907 -10.012 -44.058  1.00  0.00    -0.377 OA
ENDBRANCH  21  22
ENDBRANCH  13  21
BRANCH  16  27
ATOM     27  N   UNL     1       6.324  -9.577 -45.323  1.00  0.00    -0.340 N 
ATOM     28  H   UNL     1       7.052  -9.418 -46.014  1.00  0.00     0.168 HD
BRANCH  27  29
ATOM     29  C   UNL     1       6.810 -10.246 -44.179  1.00  0.00     0.041 A 
ATOM     30  C   UNL     1       7.054  -9.508 -43.008  1.00  0.00     0.029 A 
ATOM     31  C   UNL     1       7.150 -11.607 -44.190  1.00  0.00     0.049 A 
ATOM     32  C   UNL     1       7.574 -10.123 -41.866  1.00  0.00     0.043 A 
ATOM     33  C   UNL     1       7.671 -12.224 -43.050  1.00  0.00     0.078 A 
ATOM     34  C   UNL     1       7.877 -11.480 -41.893  1.00  0.00     0.141 A 
ATOM     35  Cl  UNL     1       8.062 -13.902 -43.093  1.00  0.00    -0.081 Cl
ATOM     36  F   UNL     1       8.375 -12.051 -40.786  1.00  0.00    -0.205 F 
ENDBRANCH  27  29
ENDBRANCH  16  27
ENDBRANCH   3  11
TORSDOF 8
ENDMDL
MODEL 16
REMARK VINA RESULT:    -7.418      5.092      9.786
REMARK INTER + INTRA:         -12.260
REMARK INTER:                 -10.771
REMARK INTRA:                  -1.488
REMARK UNBOUND:                -1.372
REMARK SMILES CN(C)C/C=C/C(=O)Nc1cc2c(Nc3ccc(F)c(Cl)c3)ncnc2cc1O[C@H]1CCOC1
REMARK SMILES IDX 7 1 8 2 9 3 6 5 5 6 4 7 2 8 1 9 3 10 10 11 11 12 28 13 12 14
REMARK SMILES IDX 27 15 13 16 26 17 23 18 25 19 24 20 29 21 30 22 31 23 34 24
REMARK SMILES IDX 32 25 33 26 14 27 15 29 16 30 22 31 17 32 20 33 18 34 21 35
REMARK SMILES IDX 19 36
REMARK H PARENT 9 4 14 28
ROOT
ATOM      1  C   UNL     1       2.297  -9.499 -45.348  1.00  0.00     0.248 C 
ATOM      2  O   UNL     1       3.046  -9.677 -46.302  1.00  0.00    -0.270 OA
ATOM      3  N   UNL     1       1.301 -10.334 -44.907  1.00  0.00    -0.319 N 
ATOM      4  H   UNL     1       0.871 -10.135 -44.008  1.00  0.00     0.170 HD
ENDROOT
BRANCH   1   5
ATOM      5  C   UNL     1       2.501  -8.302 -44.486  1.00  0.00     0.068 C 
ATOM      6  C   UNL     1       3.694  -7.700 -44.337  1.00  0.00    -0.006 C 
BRANCH   6   7
ATOM      7  C   UNL     1       4.073  -6.519 -43.480  1.00  0.00     0.111 C 
BRANCH   7   8
ATOM      8  N   UNL     1       4.887  -6.668 -42.283  1.00  0.00    -0.306 NA
ATOM      9  C   UNL     1       5.812  -7.791 -42.305  1.00  0.00     0.105 C 
ATOM     10  C   UNL     1       4.166  -6.536 -41.027  1.00  0.00     0.105 C 
ENDBRANCH   7   8
ENDBRANCH   6   7
ENDBRANCH   1   5
BRANCH   3  11
ATOM     11  C   UNL     1       0.833 -11.518 -45.515  1.00  0.00     0.085 A 
ATOM     12  C   UNL     1       1.466 -12.753 -45.387  1.00  0.00     0.044 A 
ATOM     13  C   UNL     1      -0.328 -11.425 -46.296  1.00  0.00     0.145 A 
ATOM     14  C   UNL     1       0.951 -13.908 -46.032  1.00  0.00     0.045 A 
ATOM     15  C   UNL     1      -0.820 -12.560 -46.944  1.00  0.00     0.077 A 
ATOM     16  C   UNL     1       1.519 -15.197 -45.964  1.00  0.00     0.141 A 
ATOM     17  C   UNL     1      -0.200 -13.797 -46.823  1.00  0.00     0.080 A 
ATOM     18  N   UNL     1       0.994 -16.238 -46.635  1.00  0.00    -0.219 NA
ATOM     19  N   UNL     1      -0.733 -14.830 -47.477  1.00  0.00    -0.236 NA
ATOM     20  C   UNL     1      -0.106 -16.004 -47.356  1.00  0.00     0.224 A 
BRANCH  13  21
ATOM     21  O   UNL     1      -0.891 -10.174 -46.390  1.00  0.00    -0.486 OA
BRANCH  21  22
ATOM     22  C   UNL     1      -2.203 -10.009 -45.827  1.00  0.00     0.201 C 
ATOM     23  C   UNL     1      -2.064  -9.119 -44.608  1.00  0.00     0.076 C 
ATOM     24  C   UNL     1      -3.087  -9.158 -46.733  1.00  0.00     0.205 C 
ATOM     25  C   UNL     1      -2.031  -7.738 -45.223  1.00  0.00     0.164 C 
ATOM     26  O   UNL     1      -2.899  -7.781 -46.360  1.00  0.00    -0.377 OA
ENDBRANCH  21  22
ENDBRANCH  13  21
BRANCH  16  27
ATOM     27  N   UNL     1       2.681 -15.400 -45.170  1.00  0.00    -0.340 N 
ATOM     28  H   UNL     1       2.480 -16.085 -44.448  1.00  0.00     0.168 HD
BRANCH  27  29
ATOM     29  C   UNL     1       4.029 -15.446 -45.590  1.00  0.00     0.041 A 
ATOM     30  C   UNL     1       4.456 -16.509 -46.401  1.00  0.00     0.029 A 
ATOM     31  C   UNL     1       4.985 -14.518 -45.150  1.00  0.00     0.049 A 
ATOM     32  C   UNL     1       5.790 -16.615 -46.805  1.00  0.00     0.043 A 
ATOM     33  C   UNL     1       6.320 -14.621 -45.551  1.00  0.00     0.078 A 
ATOM     34  C   UNL     1       6.715 -15.667 -46.378  1.00  0.00     0.141 A 
ATOM     35  Cl  UNL     1       7.466 -13.455 -45.006  1.00  0.00    -0.081 Cl
ATOM     36  F   UNL     1       7.989 -15.786 -46.777  1.00  0.00    -0.205 F 
ENDBRANCH  27  29
ENDBRANCH  16  27
ENDBRANCH   3  11
TORSDOF 8
ENDMDL
MODEL 17
REMARK VINA RESULT:    -7.413      5.072      9.781
REMARK INTER + INTRA:         -12.252
REMARK INTER:                 -10.650
REMARK INTRA:                  -1.602
REMARK UNBOUND:                -1.372
REMARK SMILES CN(C)C/C=C/C(=O)Nc1cc2c(Nc3ccc(F)c(Cl)c3)ncnc2cc1O[C@H]1CCOC1
REMARK SMILES IDX 7 1 8 2 9 3 6 5 5 6 4 7 2 8 1 9 3 10 10 11 11 12 28 13 12 14
REMARK SMILES IDX 27 15 13 16 26 17 23 18 25 19 24 20 29 21 30 22 31 23 34 24
REMARK SMILES IDX 32 25 33 26 14 27 15 29 16 30 22 31 17 32 20 33 18 34 21 35
REMARK SMILES IDX 19 36
REMARK H PARENT 9 4 14 28
ROOT
ATOM      1  C   UNL     1       1.955  -9.662 -44.312  1.00  0.00     0.248 C 
ATOM      2  O   UNL     1       1.562 -10.170 -43.268  1.00  0.00    -0.270 OA
ATOM      3  N   UNL     1       1.798 -10.153 -45.585  1.00  0.00    -0.319 N 
ATOM      4  H   UNL     1       2.031  -9.545 -46.365  1.00  0.00     0.170 HD
ENDROOT
BRANCH   1   5
ATOM      5  C   UNL     1       2.607  -8.325 -44.261  1.00  0.00     0.068 C 
ATOM      6  C   UNL     1       3.798  -8.111 -43.677  1.00  0.00    -0.006 C 
BRANCH   6   7
ATOM      7  C   UNL     1       4.567  -6.826 -43.505  1.00  0.00     0.111 C 
BRANCH   7   8
ATOM      8  N   UNL     1       5.917  -6.662 -44.024  1.00  0.00    -0.306 NA
ATOM      9  C   UNL     1       6.003  -5.980 -45.306  1.00  0.00     0.105 C 
ATOM     10  C   UNL     1       6.757  -7.846 -43.940  1.00  0.00     0.105 C 
ENDBRANCH   7   8
ENDBRANCH   6   7
ENDBRANCH   1   5
BRANCH   3  11
ATOM     11  C   UNL     1       1.262 -11.400 -45.972  1.00  0.00     0.085 A 
ATOM     12  C   UNL     1       2.004 -12.578 -46.016  1.00  0.00     0.044 A 
ATOM     13  C   UNL     1      -0.091 -11.432 -46.340  1.00  0.00     0.145 A 
ATOM     14  C   UNL     1       1.411 -13.801 -46.424  1.00  0.00     0.045 A 
ATOM     15  C   UNL     1      -0.665 -12.634 -46.759  1.00  0.00     0.077 A 
ATOM     16  C   UNL     1       2.078 -15.041 -46.501  1.00  0.00     0.141 A 
ATOM     17  C   UNL     1       0.063 -13.815 -46.805  1.00  0.00     0.080 A 
ATOM     18  N   UNL     1       1.456 -16.152 -46.935  1.00  0.00    -0.219 NA
ATOM     19  N   UNL     1      -0.562 -14.919 -47.220  1.00  0.00    -0.236 NA
ATOM     20  C   UNL     1       0.168 -16.037 -47.270  1.00  0.00     0.224 A 
BRANCH  13  21
ATOM     21  O   UNL     1      -0.758 -10.231 -46.287  1.00  0.00    -0.486 OA
BRANCH  21  22
ATOM     22  C   UNL     1      -2.069 -10.242 -45.698  1.00  0.00     0.201 C 
ATOM     23  C   UNL     1      -1.892 -10.121 -44.198  1.00  0.00     0.076 C 
ATOM     24  C   UNL     1      -2.829  -8.961 -46.026  1.00  0.00     0.205 C 
ATOM     25  C   UNL     1      -1.701  -8.631 -44.018  1.00  0.00     0.164 C 
ATOM     26  O   UNL     1      -2.523  -7.997 -45.001  1.00  0.00    -0.377 OA
ENDBRANCH  21  22
ENDBRANCH  13  21
BRANCH  16  27
ATOM     27  N   UNL     1       3.445 -15.117 -46.119  1.00  0.00    -0.340 N 
ATOM     28  H   UNL     1       3.860 -14.192 -46.172  1.00  0.00     0.168 HD
BRANCH  27  29
ATOM     29  C   UNL     1       4.025 -15.907 -45.102  1.00  0.00     0.041 A 
ATOM     30  C   UNL     1       3.617 -15.717 -43.772  1.00  0.00     0.029 A 
ATOM     31  C   UNL     1       5.066 -16.813 -45.356  1.00  0.00     0.049 A 
ATOM     32  C   UNL     1       4.195 -16.448 -42.730  1.00  0.00     0.043 A 
ATOM     33  C   UNL     1       5.646 -17.545 -44.316  1.00  0.00     0.078 A 
ATOM     34  C   UNL     1       5.206 -17.361 -43.010  1.00  0.00     0.141 A 
ATOM     35  Cl  UNL     1       6.912 -18.662 -44.665  1.00  0.00    -0.081 Cl
ATOM     36  F   UNL     1       5.747 -18.053 -41.997  1.00  0.00    -0.205 F 
ENDBRANCH  27  29
ENDBRANCH  16  27
ENDBRANCH   3  11
TORSDOF 8
ENDMDL
MODEL 18
REMARK VINA RESULT:    -7.368      5.037      9.892
REMARK INTER + INTRA:         -12.186
REMARK INTER:                 -10.707
REMARK INTRA:                  -1.478
REMARK UNBOUND:                -1.372
REMARK SMILES CN(C)C/C=C/C(=O)Nc1cc2c(Nc3ccc(F)c(Cl)c3)ncnc2cc1O[C@H]1CCOC1
REMARK SMILES IDX 7 1 8 2 9 3 6 5 5 6 4 7 2 8 1 9 3 10 10 11 11 12 28 13 12 14
REMARK SMILES IDX 27 15 13 16 26 17 23 18 25 19 24 20 29 21 30 22 31 23 34 24
REMARK SMILES IDX 32 25 33 26 14 27 15 29 16 30 22 31 17 32 20 33 18 34 21 35
REMARK SMILES IDX 19 36
REMARK H PARENT 9 4 14 28
ROOT
ATOM      1  C   UNL     1       5.079 -15.712 -44.843  1.00  0.00     0.248 C 
ATOM      2  O   UNL     1       5.070 -15.628 -43.621  1.00  0.00    -0.270 OA
ATOM      3  N   UNL     1       5.567 -16.747 -45.601  1.00  0.00    -0.319 N 
ATOM      4  H   UNL     1       5.359 -16.753 -46.597  1.00  0.00     0.170 HD
ENDROOT
BRANCH   1   5
ATOM      5  C   UNL     1       4.426 -14.639 -45.643  1.00  0.00     0.068 C 
ATOM      6  C   UNL     1       3.246 -14.089 -45.307  1.00  0.00    -0.006 C 
BRANCH   6   7
ATOM      7  C   UNL     1       2.439 -13.036 -46.023  1.00  0.00     0.111 C 
BRANCH   7   8
ATOM      8  N   UNL     1       1.407 -12.265 -45.344  1.00  0.00    -0.306 NA
ATOM      9  C   UNL     1       1.343 -12.459 -43.904  1.00  0.00     0.105 C 
ATOM     10  C   UNL     1       0.104 -12.279 -45.989  1.00  0.00     0.105 C 
ENDBRANCH   7   8
ENDBRANCH   6   7
ENDBRANCH   1   5
BRANCH   3  11
ATOM     11  C   UNL     1       6.272 -17.886 -45.159  1.00  0.00     0.085 A 
ATOM     12  C   UNL     1       5.672 -18.955 -44.496  1.00  0.00     0.044 A 
ATOM     13  C   UNL     1       7.653 -17.921 -45.398  1.00  0.00     0.145 A 
ATOM     14  C   UNL     1       6.438 -20.070 -44.066  1.00  0.00     0.045 A 
ATOM     15  C   UNL     1       8.405 -19.011 -44.956  1.00  0.00     0.077 A 
ATOM     16  C   UNL     1       5.924 -21.196 -43.389  1.00  0.00     0.141 A 
ATOM     17  C   UNL     1       7.820 -20.084 -44.296  1.00  0.00     0.080 A 
ATOM     18  N   UNL     1       6.720 -22.199 -42.978  1.00  0.00    -0.219 NA
ATOM     19  N   UNL     1       8.611 -21.085 -43.905  1.00  0.00    -0.236 NA
ATOM     20  C   UNL     1       8.023 -22.095 -43.258  1.00  0.00     0.224 A 
BRANCH  13  21
ATOM     21  O   UNL     1       8.180 -16.827 -46.044  1.00  0.00    -0.486 OA
BRANCH  21  22
ATOM     22  C   UNL     1       9.263 -16.147 -45.391  1.00  0.00     0.201 C 
ATOM     23  C   UNL     1       9.411 -14.791 -46.051  1.00  0.00     0.076 C 
ATOM     24  C   UNL     1       8.889 -15.758 -43.964  1.00  0.00     0.205 C 
ATOM     25  C   UNL     1       8.337 -13.980 -45.360  1.00  0.00     0.164 C 
ATOM     26  O   UNL     1       8.277 -14.456 -44.012  1.00  0.00    -0.377 OA
ENDBRANCH  21  22
ENDBRANCH  13  21
BRANCH  16  27
ATOM     27  N   UNL     1       4.529 -21.268 -43.127  1.00  0.00    -0.340 N 
ATOM     28  H   UNL     1       4.215 -22.228 -43.237  1.00  0.00     0.168 HD
BRANCH  27  29
ATOM     29  C   UNL     1       3.785 -20.572 -42.149  1.00  0.00     0.041 A 
ATOM     30  C   UNL     1       4.461 -19.740 -41.242  1.00  0.00     0.029 A 
ATOM     31  C   UNL     1       2.403 -20.750 -41.987  1.00  0.00     0.049 A 
ATOM     32  C   UNL     1       3.769 -19.064 -40.232  1.00  0.00     0.043 A 
ATOM     33  C   UNL     1       1.709 -20.077 -40.978  1.00  0.00     0.078 A 
ATOM     34  C   UNL     1       2.394 -19.236 -40.108  1.00  0.00     0.141 A 
ATOM     35  Cl  UNL     1       0.008 -20.306 -40.816  1.00  0.00    -0.081 Cl
ATOM     36  F   UNL     1       1.749 -18.578 -39.134  1.00  0.00    -0.205 F 
ENDBRANCH  27  29
ENDBRANCH  16  27
ENDBRANCH   3  11
TORSDOF 8
ENDMDL
MODEL 19
REMARK VINA RESULT:    -7.321      4.426      9.001
REMARK INTER + INTRA:         -12.117
REMARK INTER:                 -10.997
REMARK INTRA:                  -1.120
REMARK UNBOUND:                -1.372
REMARK SMILES CN(C)C/C=C/C(=O)Nc1cc2c(Nc3ccc(F)c(Cl)c3)ncnc2cc1O[C@H]1CCOC1
REMARK SMILES IDX 7 1 8 2 9 3 6 5 5 6 4 7 2 8 1 9 3 10 10 11 11 12 28 13 12 14
REMARK SMILES IDX 27 15 13 16 26 17 23 18 25 19 24 20 29 21 30 22 31 23 34 24
REMARK SMILES IDX 32 25 33 26 14 27 15 29 16 30 22 31 17 32 20 33 18 34 21 35
REMARK SMILES IDX 19 36
REMARK H PARENT 9 4 14 28
ROOT
ATOM      1  C   UNL     1       4.299 -14.100 -44.322  1.00  0.00     0.248 C 
ATOM      2  O   UNL     1       4.733 -13.276 -43.525  1.00  0.00    -0.270 OA
ATOM      3  N   UNL     1       4.400 -15.467 -44.240  1.00  0.00    -0.319 N 
ATOM      4  H   UNL     1       3.851 -16.028 -44.887  1.00  0.00     0.170 HD
ENDROOT
BRANCH   1   5
ATOM      5  C   UNL     1       3.493 -13.626 -45.481  1.00  0.00     0.068 C 
ATOM      6  C   UNL     1       2.167 -13.825 -45.582  1.00  0.00    -0.006 C 
BRANCH   6   7
ATOM      7  C   UNL     1       1.222 -13.451 -46.695  1.00  0.00     0.111 C 
BRANCH   7   8
ATOM      8  N   UNL     1       0.574 -12.148 -46.748  1.00  0.00    -0.306 NA
ATOM      9  C   UNL     1       0.808 -11.299 -45.590  1.00  0.00     0.105 C 
ATOM     10  C   UNL     1      -0.814 -12.168 -47.181  1.00  0.00     0.105 C 
ENDBRANCH   7   8
ENDBRANCH   6   7
ENDBRANCH   1   5
BRANCH   3  11
ATOM     11  C   UNL     1       5.123 -16.226 -43.296  1.00  0.00     0.085 A 
ATOM     12  C   UNL     1       4.530 -16.887 -42.222  1.00  0.00     0.044 A 
ATOM     13  C   UNL     1       6.514 -16.298 -43.457  1.00  0.00     0.145 A 
ATOM     14  C   UNL     1       5.312 -17.629 -41.298  1.00  0.00     0.045 A 
ATOM     15  C   UNL     1       7.281 -17.012 -42.534  1.00  0.00     0.077 A 
ATOM     16  C   UNL     1       4.806 -18.329 -40.184  1.00  0.00     0.141 A 
ATOM     17  C   UNL     1       6.703 -17.678 -41.462  1.00  0.00     0.080 A 
ATOM     18  N   UNL     1       5.616 -18.979 -39.329  1.00  0.00    -0.219 NA
ATOM     19  N   UNL     1       7.509 -18.335 -40.625  1.00  0.00    -0.236 NA
ATOM     20  C   UNL     1       6.926 -18.952 -39.593  1.00  0.00     0.224 A 
BRANCH  13  21
ATOM     21  O   UNL     1       7.032 -15.610 -44.528  1.00  0.00    -0.486 OA
BRANCH  21  22
ATOM     22  C   UNL     1       8.225 -14.846 -44.294  1.00  0.00     0.201 C 
ATOM     23  C   UNL     1       9.396 -15.671 -44.787  1.00  0.00     0.076 C 
ATOM     24  C   UNL     1       8.291 -13.632 -45.215  1.00  0.00     0.205 C 
ATOM     25  C   UNL     1       9.378 -15.396 -46.274  1.00  0.00     0.164 C 
ATOM     26  O   UNL     1       8.951 -14.039 -46.429  1.00  0.00    -0.377 OA
ENDBRANCH  21  22
ENDBRANCH  13  21
BRANCH  16  27
ATOM     27  N   UNL     1       3.404 -18.342 -39.953  1.00  0.00    -0.340 N 
ATOM     28  H   UNL     1       3.080 -17.393 -39.794  1.00  0.00     0.168 HD
BRANCH  27  29
ATOM     29  C   UNL     1       2.423 -19.144 -40.576  1.00  0.00     0.041 A 
ATOM     30  C   UNL     1       2.804 -20.368 -41.150  1.00  0.00     0.029 A 
ATOM     31  C   UNL     1       1.093 -18.723 -40.729  1.00  0.00     0.049 A 
ATOM     32  C   UNL     1       1.873 -21.173 -41.812  1.00  0.00     0.043 A 
ATOM     33  C   UNL     1       0.160 -19.526 -41.392  1.00  0.00     0.078 A 
ATOM     34  C   UNL     1       0.555 -20.747 -41.927  1.00  0.00     0.141 A 
ATOM     35  Cl  UNL     1      -1.469 -18.987 -41.548  1.00  0.00    -0.081 Cl
ATOM     36  F   UNL     1      -0.323 -21.535 -42.566  1.00  0.00    -0.205 F 
ENDBRANCH  27  29
ENDBRANCH  16  27
ENDBRANCH   3  11
TORSDOF 8
ENDMDL
MODEL 20
REMARK VINA RESULT:    -7.270      5.143      8.817
REMARK INTER + INTRA:         -12.042
REMARK INTER:                 -10.282
REMARK INTRA:                  -1.760
REMARK UNBOUND:                -1.372
REMARK SMILES CN(C)C/C=C/C(=O)Nc1cc2c(Nc3ccc(F)c(Cl)c3)ncnc2cc1O[C@H]1CCOC1
REMARK SMILES IDX 7 1 8 2 9 3 6 5 5 6 4 7 2 8 1 9 3 10 10 11 11 12 28 13 12 14
REMARK SMILES IDX 27 15 13 16 26 17 23 18 25 19 24 20 29 21 30 22 31 23 34 24
REMARK SMILES IDX 32 25 33 26 14 27 15 29 16 30 22 31 17 32 20 33 18 34 21 35
REMARK SMILES IDX 19 36
REMARK H PARENT 9 4 14 28
ROOT
ATOM      1  C   UNL     1       0.927 -15.584 -45.799  1.00  0.00     0.248 C 
ATOM      2  O   UNL     1       1.082 -15.461 -47.009  1.00  0.00    -0.270 OA
ATOM      3  N   UNL     1       1.817 -15.247 -44.810  1.00  0.00    -0.319 N 
ATOM      4  H   UNL     1       1.489 -15.253 -43.847  1.00  0.00     0.170 HD
ENDROOT
BRANCH   1   5
ATOM      5  C   UNL     1      -0.385 -16.068 -45.287  1.00  0.00     0.068 C 
ATOM      6  C   UNL     1      -0.572 -16.474 -44.019  1.00  0.00    -0.006 C 
BRANCH   6   7
ATOM      7  C   UNL     1      -1.810 -17.025 -43.360  1.00  0.00     0.111 C 
BRANCH   7   8
ATOM      8  N   UNL     1      -1.738 -17.962 -42.248  1.00  0.00    -0.306 NA
ATOM      9  C   UNL     1      -0.500 -18.722 -42.165  1.00  0.00     0.105 C 
ATOM     10  C   UNL     1      -2.929 -18.770 -42.045  1.00  0.00     0.105 C 
ENDBRANCH   7   8
ENDBRANCH   6   7
ENDBRANCH   1   5
BRANCH   3  11
ATOM     11  C   UNL     1       3.148 -14.801 -44.958  1.00  0.00     0.085 A 
ATOM     12  C   UNL     1       4.189 -15.615 -45.400  1.00  0.00     0.044 A 
ATOM     13  C   UNL     1       3.419 -13.466 -44.626  1.00  0.00     0.145 A 
ATOM     14  C   UNL     1       5.510 -15.110 -45.518  1.00  0.00     0.045 A 
ATOM     15  C   UNL     1       4.724 -12.980 -44.727  1.00  0.00     0.077 A 
ATOM     16  C   UNL     1       6.627 -15.853 -45.954  1.00  0.00     0.141 A 
ATOM     17  C   UNL     1       5.770 -13.779 -45.167  1.00  0.00     0.080 A 
ATOM     18  N   UNL     1       7.859 -15.315 -46.005  1.00  0.00    -0.219 NA
ATOM     19  N   UNL     1       6.988 -13.237 -45.232  1.00  0.00    -0.236 NA
ATOM     20  C   UNL     1       7.978 -14.034 -45.644  1.00  0.00     0.224 A 
BRANCH  13  21
ATOM     21  O   UNL     1       2.348 -12.726 -44.184  1.00  0.00    -0.486 OA
BRANCH  21  22
ATOM     22  C   UNL     1       2.052 -11.519 -44.905  1.00  0.00     0.201 C 
ATOM     23  C   UNL     1       1.049 -11.871 -45.985  1.00  0.00     0.076 C 
ATOM     24  C   UNL     1       1.252 -10.547 -44.044  1.00  0.00     0.205 C 
ATOM     25  C   UNL     1      -0.257 -11.869 -45.222  1.00  0.00     0.164 C 
ATOM     26  O   UNL     1      -0.145 -10.843 -44.232  1.00  0.00    -0.377 OA
ENDBRANCH  21  22
ENDBRANCH  13  21
BRANCH  16  27
ATOM     27  N   UNL     1       6.448 -17.209 -46.343  1.00  0.00    -0.340 N 
ATOM     28  H   UNL     1       6.728 -17.320 -47.313  1.00  0.00     0.168 HD
BRANCH  27  29
ATOM     29  C   UNL     1       6.680 -18.375 -45.582  1.00  0.00     0.041 A 
ATOM     30  C   UNL     1       7.936 -19.001 -45.657  1.00  0.00     0.029 A 
ATOM     31  C   UNL     1       5.675 -18.991 -44.821  1.00  0.00     0.049 A 
ATOM     32  C   UNL     1       8.195 -20.179 -44.953  1.00  0.00     0.043 A 
ATOM     33  C   UNL     1       5.931 -20.169 -44.116  1.00  0.00     0.078 A 
ATOM     34  C   UNL     1       7.191 -20.756 -44.184  1.00  0.00     0.141 A 
ATOM     35  Cl  UNL     1       4.678 -20.891 -43.179  1.00  0.00    -0.081 Cl
ATOM     36  F   UNL     1       7.460 -21.887 -43.514  1.00  0.00    -0.205 F 
ENDBRANCH  27  29
ENDBRANCH  16  27
ENDBRANCH   3  11
TORSDOF 8
ENDMDL
