MODEL 1
REMARK VINA RESULT:    -8.462      0.000      0.000
REMARK INTER + INTRA:         -11.906
REMARK INTER:                 -10.936
REMARK INTRA:                  -0.970
REMARK UNBOUND:                -0.970
REMARK SMILES CNC(=O)c1ccccc1Sc1ccc2c(/C=C/c3ccccn3)n[nH]c2c1
REMARK SMILES IDX 11 1 10 2 5 3 6 4 7 5 9 6 8 7 3 8 2 9 4 10 1 11 12 13 13 14
REMARK SMILES IDX 28 15 14 16 27 17 15 18 26 19 16 20 25 21 17 23 18 24 19 25
REMARK SMILES IDX 20 26 24 27 21 28 23 29 22 30
REMARK H PARENT 2 12 26 22
ROOT
ATOM      1  S   UNL     1       8.843 -14.922 -42.543  1.00  0.00    -0.089 SA
ENDROOT
BRANCH   1   2
ATOM      2  C   UNL     1       8.232 -13.237 -42.521  1.00  0.00     0.025 A 
ATOM      3  C   UNL     1       8.069 -12.473 -41.352  1.00  0.00     0.053 A 
ATOM      4  C   UNL     1       7.643 -11.138 -41.437  1.00  0.00     0.015 A 
ATOM      5  C   UNL     1       7.348 -10.567 -42.674  1.00  0.00     0.001 A 
ATOM      6  C   UNL     1       7.926 -12.648 -43.758  1.00  0.00     0.016 A 
ATOM      7  C   UNL     1       7.485 -11.325 -43.834  1.00  0.00     0.001 A 
BRANCH   3   8
ATOM      8  C   UNL     1       8.352 -12.981 -39.987  1.00  0.00     0.252 C 
ATOM      9  N   UNL     1       7.264 -13.148 -39.161  1.00  0.00    -0.355 N 
ATOM     10  O   UNL     1       9.511 -13.198 -39.650  1.00  0.00    -0.269 OA
ATOM     11  C   UNL     1       7.400 -13.734 -37.853  1.00  0.00     0.143 C 
ATOM     12  H   UNL     1       6.336 -13.084 -39.564  1.00  0.00     0.163 HD
ENDBRANCH   3   8
ENDBRANCH   1   2
BRANCH   1  13
ATOM     13  C   UNL     1       7.360 -15.809 -42.083  1.00  0.00     0.014 A 
ATOM     14  C   UNL     1       6.185 -15.596 -42.811  1.00  0.00     0.016 A 
ATOM     15  C   UNL     1       7.369 -16.691 -40.994  1.00  0.00     0.043 A 
ATOM     16  C   UNL     1       4.998 -16.269 -42.484  1.00  0.00     0.014 A 
ATOM     17  C   UNL     1       6.175 -17.357 -40.693  1.00  0.00     0.067 A 
ATOM     18  C   UNL     1       4.996 -17.173 -41.404  1.00  0.00     0.027 A 
ATOM     19  N   UNL     1       5.872 -18.273 -39.724  1.00  0.00    -0.277 N 
ATOM     20  C   UNL     1       4.045 -18.032 -40.769  1.00  0.00     0.093 A 
ATOM     21  N   UNL     1       4.601 -18.700 -39.748  1.00  0.00    -0.175 NA
ATOM     22  H   UNL     1       6.492 -18.653 -39.018  1.00  0.00     0.190 HD
BRANCH  20  23
ATOM     23  C   UNL     1       2.674 -18.175 -41.171  1.00  0.00     0.033 C 
ATOM     24  C   UNL     1       1.983 -19.328 -41.137  1.00  0.00     0.030 C 
BRANCH  24  25
ATOM     25  C   UNL     1       0.584 -19.497 -41.539  1.00  0.00     0.063 A 
ATOM     26  C   UNL     1      -0.106 -20.700 -41.410  1.00  0.00     0.028 A 
ATOM     27  N   UNL     1      -0.009 -18.369 -41.995  1.00  0.00    -0.257 NA
ATOM     28  C   UNL     1      -1.448 -20.751 -41.783  1.00  0.00     0.004 A 
ATOM     29  C   UNL     1      -1.310 -18.448 -42.352  1.00  0.00     0.111 A 
ATOM     30  C   UNL     1      -2.064 -19.605 -42.267  1.00  0.00     0.020 A 
ENDBRANCH  24  25
ENDBRANCH  20  23
ENDBRANCH   1  13
TORSDOF 5
ENDMDL
MODEL 2
REMARK VINA RESULT:    -8.117      9.229     11.193
REMARK INTER + INTRA:         -11.460
REMARK INTER:                 -10.406
REMARK INTRA:                  -1.054
REMARK UNBOUND:                -0.970
REMARK SMILES CNC(=O)c1ccccc1Sc1ccc2c(/C=C/c3ccccn3)n[nH]c2c1
REMARK SMILES IDX 11 1 10 2 5 3 6 4 7 5 9 6 8 7 3 8 2 9 4 10 1 11 12 13 13 14
REMARK SMILES IDX 28 15 14 16 27 17 15 18 26 19 16 20 25 21 17 23 18 24 19 25
REMARK SMILES IDX 20 26 24 27 21 28 23 29 22 30
REMARK H PARENT 2 12 26 22
ROOT
ATOM      1  S   UNL     1      -3.341  -8.514 -46.079  1.00  0.00    -0.089 SA
ENDROOT
BRANCH   1   2
ATOM      2  C   UNL     1      -4.309  -8.318 -44.583  1.00  0.00     0.025 A 
ATOM      3  C   UNL     1      -4.372  -7.128 -43.837  1.00  0.00     0.053 A 
ATOM      4  C   UNL     1      -5.208  -7.046 -42.711  1.00  0.00     0.015 A 
ATOM      5  C   UNL     1      -5.957  -8.150 -42.305  1.00  0.00     0.001 A 
ATOM      6  C   UNL     1      -5.066  -9.420 -44.157  1.00  0.00     0.016 A 
ATOM      7  C   UNL     1      -5.881  -9.339 -43.026  1.00  0.00     0.001 A 
BRANCH   3   8
ATOM      8  C   UNL     1      -3.619  -5.896 -44.178  1.00  0.00     0.252 C 
ATOM      9  N   UNL     1      -2.335  -5.812 -43.689  1.00  0.00    -0.355 N 
ATOM     10  O   UNL     1      -4.161  -5.018 -44.840  1.00  0.00    -0.269 OA
ATOM     11  C   UNL     1      -1.470  -4.717 -44.042  1.00  0.00     0.143 C 
ATOM     12  H   UNL     1      -1.918  -6.639 -43.277  1.00  0.00     0.163 HD
ENDBRANCH   3   8
ENDBRANCH   1   2
BRANCH   1  13
ATOM     13  C   UNL     1      -2.042  -9.590 -45.483  1.00  0.00     0.014 A 
ATOM     14  C   UNL     1      -1.579 -10.621 -46.308  1.00  0.00     0.016 A 
ATOM     15  C   UNL     1      -1.508  -9.416 -44.199  1.00  0.00     0.043 A 
ATOM     16  C   UNL     1      -0.563 -11.489 -45.881  1.00  0.00     0.014 A 
ATOM     17  C   UNL     1      -0.490 -10.289 -43.799  1.00  0.00     0.067 A 
ATOM     18  C   UNL     1      -0.004 -11.314 -44.599  1.00  0.00     0.027 A 
ATOM     19  N   UNL     1       0.229 -10.365 -42.639  1.00  0.00    -0.277 N 
ATOM     20  C   UNL     1       1.009 -11.946 -43.813  1.00  0.00     0.093 A 
ATOM     21  N   UNL     1       1.141 -11.349 -42.619  1.00  0.00    -0.175 NA
ATOM     22  H   UNL     1       0.149  -9.769 -41.822  1.00  0.00     0.190 HD
BRANCH  20  23
ATOM     23  C   UNL     1       1.796 -13.069 -44.239  1.00  0.00     0.033 C 
ATOM     24  C   UNL     1       2.817 -13.001 -45.111  1.00  0.00     0.030 C 
BRANCH  24  25
ATOM     25  C   UNL     1       3.635 -14.132 -45.558  1.00  0.00     0.063 A 
ATOM     26  C   UNL     1       3.095 -15.339 -45.992  1.00  0.00     0.028 A 
ATOM     27  N   UNL     1       4.967 -13.890 -45.572  1.00  0.00    -0.257 NA
ATOM     28  C   UNL     1       3.954 -16.343 -46.437  1.00  0.00     0.004 A 
ATOM     29  C   UNL     1       5.778 -14.881 -46.005  1.00  0.00     0.111 A 
ATOM     30  C   UNL     1       5.323 -16.113 -46.442  1.00  0.00     0.020 A 
ENDBRANCH  24  25
ENDBRANCH  20  23
ENDBRANCH   1  13
TORSDOF 5
ENDMDL
MODEL 3
REMARK VINA RESULT:    -7.948      7.961      9.406
REMARK INTER + INTRA:         -11.242
REMARK INTER:                 -10.630
REMARK INTRA:                  -0.612
REMARK UNBOUND:                -0.970
REMARK SMILES CNC(=O)c1ccccc1Sc1ccc2c(/C=C/c3ccccn3)n[nH]c2c1
REMARK SMILES IDX 11 1 10 2 5 3 6 4 7 5 9 6 8 7 3 8 2 9 4 10 1 11 12 13 13 14
REMARK SMILES IDX 28 15 14 16 27 17 15 18 26 19 16 20 25 21 17 23 18 24 19 25
REMARK SMILES IDX 20 26 24 27 21 28 23 29 22 30
REMARK H PARENT 2 12 26 22
ROOT
ATOM      1  S   UNL     1      -0.185  -8.587 -44.575  1.00  0.00    -0.089 SA
ENDROOT
BRANCH   1   2
ATOM      2  C   UNL     1      -1.853  -8.427 -43.939  1.00  0.00     0.025 A 
ATOM      3  C   UNL     1      -2.551  -7.209 -43.855  1.00  0.00     0.053 A 
ATOM      4  C   UNL     1      -3.879  -7.188 -43.401  1.00  0.00     0.015 A 
ATOM      5  C   UNL     1      -4.509  -8.366 -43.002  1.00  0.00     0.001 A 
ATOM      6  C   UNL     1      -2.501  -9.603 -43.528  1.00  0.00     0.016 A 
ATOM      7  C   UNL     1      -3.816  -9.573 -43.061  1.00  0.00     0.001 A 
BRANCH   3   8
ATOM      8  C   UNL     1      -1.978  -5.899 -44.252  1.00  0.00     0.252 C 
ATOM      9  N   UNL     1      -1.940  -5.636 -45.603  1.00  0.00    -0.355 N 
ATOM     10  O   UNL     1      -1.550  -5.139 -43.391  1.00  0.00    -0.269 OA
ATOM     11  C   UNL     1      -1.507  -4.358 -46.104  1.00  0.00     0.143 C 
ATOM     12  H   UNL     1      -2.444  -6.252 -46.231  1.00  0.00     0.163 HD
ENDBRANCH   3   8
ENDBRANCH   1   2
BRANCH   1  13
ATOM     13  C   UNL     1       0.001 -10.365 -44.550  1.00  0.00     0.014 A 
ATOM     14  C   UNL     1       0.476 -10.985 -43.388  1.00  0.00     0.016 A 
ATOM     15  C   UNL     1      -0.304 -11.128 -45.685  1.00  0.00     0.043 A 
ATOM     16  C   UNL     1       0.640 -12.377 -43.325  1.00  0.00     0.014 A 
ATOM     17  C   UNL     1      -0.142 -12.515 -45.594  1.00  0.00     0.067 A 
ATOM     18  C   UNL     1       0.318 -13.158 -44.453  1.00  0.00     0.027 A 
ATOM     19  N   UNL     1      -0.366 -13.511 -46.504  1.00  0.00    -0.277 N 
ATOM     20  C   UNL     1       0.332 -14.547 -44.793  1.00  0.00     0.093 A 
ATOM     21  N   UNL     1      -0.094 -14.743 -46.049  1.00  0.00    -0.175 NA
ATOM     22  H   UNL     1      -0.711 -13.415 -47.452  1.00  0.00     0.190 HD
BRANCH  20  23
ATOM     23  C   UNL     1       0.739 -15.603 -43.909  1.00  0.00     0.033 C 
ATOM     24  C   UNL     1      -0.104 -16.375 -43.201  1.00  0.00     0.030 C 
BRANCH  24  25
ATOM     25  C   UNL     1       0.288 -17.459 -42.296  1.00  0.00     0.063 A 
ATOM     26  C   UNL     1       1.475 -17.453 -41.568  1.00  0.00     0.028 A 
ATOM     27  N   UNL     1      -0.628 -18.449 -42.176  1.00  0.00    -0.257 NA
ATOM     28  C   UNL     1       1.741 -18.512 -40.701  1.00  0.00     0.004 A 
ATOM     29  C   UNL     1      -0.344 -19.464 -41.331  1.00  0.00     0.111 A 
ATOM     30  C   UNL     1       0.816 -19.541 -40.581  1.00  0.00     0.020 A 
ENDBRANCH  24  25
ENDBRANCH  20  23
ENDBRANCH   1  13
TORSDOF 5
ENDMDL
MODEL 4
REMARK VINA RESULT:    -7.842      5.264      9.581
REMARK INTER + INTRA:         -11.104
REMARK INTER:                 -10.191
REMARK INTRA:                  -0.913
REMARK UNBOUND:                -0.970
REMARK SMILES CNC(=O)c1ccccc1Sc1ccc2c(/C=C/c3ccccn3)n[nH]c2c1
REMARK SMILES IDX 11 1 10 2 5 3 6 4 7 5 9 6 8 7 3 8 2 9 4 10 1 11 12 13 13 14
REMARK SMILES IDX 28 15 14 16 27 17 15 18 26 19 16 20 25 21 17 23 18 24 19 25
REMARK SMILES IDX 20 26 24 27 21 28 23 29 22 30
REMARK H PARENT 2 12 26 22
ROOT
ATOM      1  S   UNL     1       1.517 -19.765 -40.079  1.00  0.00    -0.089 SA
ENDROOT
BRANCH   1   2
ATOM      2  C   UNL     1       0.628 -18.800 -41.300  1.00  0.00     0.025 A 
ATOM      3  C   UNL     1      -0.475 -19.277 -42.031  1.00  0.00     0.053 A 
ATOM      4  C   UNL     1      -1.150 -18.427 -42.923  1.00  0.00     0.015 A 
ATOM      5  C   UNL     1      -0.717 -17.116 -43.115  1.00  0.00     0.001 A 
ATOM      6  C   UNL     1       1.053 -17.478 -41.510  1.00  0.00     0.016 A 
ATOM      7  C   UNL     1       0.389 -16.644 -42.412  1.00  0.00     0.001 A 
BRANCH   3   8
ATOM      8  C   UNL     1      -1.018 -20.651 -41.904  1.00  0.00     0.252 C 
ATOM      9  N   UNL     1      -2.249 -20.766 -41.297  1.00  0.00    -0.355 N 
ATOM     10  O   UNL     1      -0.359 -21.603 -42.308  1.00  0.00    -0.269 OA
ATOM     11  C   UNL     1      -2.926 -22.034 -41.213  1.00  0.00     0.143 C 
ATOM     12  H   UNL     1      -2.785 -19.923 -41.127  1.00  0.00     0.163 HD
ENDBRANCH   3   8
ENDBRANCH   1   2
BRANCH   1  13
ATOM     13  C   UNL     1       3.145 -19.801 -40.819  1.00  0.00     0.014 A 
ATOM     14  C   UNL     1       4.140 -18.955 -40.317  1.00  0.00     0.016 A 
ATOM     15  C   UNL     1       3.415 -20.649 -41.902  1.00  0.00     0.043 A 
ATOM     16  C   UNL     1       5.430 -18.949 -40.869  1.00  0.00     0.014 A 
ATOM     17  C   UNL     1       4.711 -20.630 -42.429  1.00  0.00     0.067 A 
ATOM     18  C   UNL     1       5.722 -19.810 -41.945  1.00  0.00     0.027 A 
ATOM     19  N   UNL     1       5.279 -21.338 -43.451  1.00  0.00    -0.277 N 
ATOM     20  C   UNL     1       6.859 -20.109 -42.758  1.00  0.00     0.093 A 
ATOM     21  N   UNL     1       6.571 -21.048 -43.670  1.00  0.00    -0.175 NA
ATOM     22  H   UNL     1       4.839 -22.038 -44.037  1.00  0.00     0.190 HD
BRANCH  20  23
ATOM     23  C   UNL     1       8.150 -19.495 -42.619  1.00  0.00     0.033 C 
ATOM     24  C   UNL     1       8.908 -19.550 -41.510  1.00  0.00     0.030 C 
BRANCH  24  25
ATOM     25  C   UNL     1      10.228 -18.935 -41.346  1.00  0.00     0.063 A 
ATOM     26  C   UNL     1      10.595 -17.743 -41.965  1.00  0.00     0.028 A 
ATOM     27  N   UNL     1      11.050 -19.589 -40.493  1.00  0.00    -0.257 NA
ATOM     28  C   UNL     1      11.861 -17.215 -41.715  1.00  0.00     0.004 A 
ATOM     29  C   UNL     1      12.272 -19.057 -40.270  1.00  0.00     0.111 A 
ATOM     30  C   UNL     1      12.720 -17.884 -40.854  1.00  0.00     0.020 A 
ENDBRANCH  24  25
ENDBRANCH  20  23
ENDBRANCH   1  13
TORSDOF 5
ENDMDL
MODEL 5
REMARK VINA RESULT:    -7.823      4.286      5.830
REMARK INTER + INTRA:         -11.081
REMARK INTER:                 -10.094
REMARK INTRA:                  -0.987
REMARK UNBOUND:                -0.970
REMARK SMILES CNC(=O)c1ccccc1Sc1ccc2c(/C=C/c3ccccn3)n[nH]c2c1
REMARK SMILES IDX 11 1 10 2 5 3 6 4 7 5 9 6 8 7 3 8 2 9 4 10 1 11 12 13 13 14
REMARK SMILES IDX 28 15 14 16 27 17 15 18 26 19 16 20 25 21 17 23 18 24 19 25
REMARK SMILES IDX 20 26 24 27 21 28 23 29 22 30
REMARK H PARENT 2 12 26 22
ROOT
ATOM      1  S   UNL     1       4.507  -9.572 -46.208  1.00  0.00    -0.089 SA
ENDROOT
BRANCH   1   2
ATOM      2  C   UNL     1       4.900  -8.790 -44.644  1.00  0.00     0.025 A 
ATOM      3  C   UNL     1       6.150  -8.888 -44.007  1.00  0.00     0.053 A 
ATOM      4  C   UNL     1       6.389  -8.189 -42.812  1.00  0.00     0.015 A 
ATOM      5  C   UNL     1       5.383  -7.418 -42.231  1.00  0.00     0.001 A 
ATOM      6  C   UNL     1       3.898  -8.013 -44.042  1.00  0.00     0.016 A 
ATOM      7  C   UNL     1       4.135  -7.335 -42.845  1.00  0.00     0.001 A 
BRANCH   3   8
ATOM      8  C   UNL     1       7.288  -9.679 -44.536  1.00  0.00     0.252 C 
ATOM      9  N   UNL     1       7.338 -11.002 -44.160  1.00  0.00    -0.355 N 
ATOM     10  O   UNL     1       8.127  -9.134 -45.245  1.00  0.00    -0.269 OA
ATOM     11  C   UNL     1       8.332 -11.896 -44.694  1.00  0.00     0.143 C 
ATOM     12  H   UNL     1       6.531 -11.404 -43.696  1.00  0.00     0.163 HD
ENDBRANCH   3   8
ENDBRANCH   1   2
BRANCH   1  13
ATOM     13  C   UNL     1       3.501 -10.938 -45.641  1.00  0.00     0.014 A 
ATOM     14  C   UNL     1       4.127 -12.108 -45.198  1.00  0.00     0.016 A 
ATOM     15  C   UNL     1       2.102 -10.847 -45.661  1.00  0.00     0.043 A 
ATOM     16  C   UNL     1       3.378 -13.205 -44.748  1.00  0.00     0.014 A 
ATOM     17  C   UNL     1       1.377 -11.951 -45.198  1.00  0.00     0.067 A 
ATOM     18  C   UNL     1       1.971 -13.120 -44.743  1.00  0.00     0.027 A 
ATOM     19  N   UNL     1       0.031 -12.159 -45.078  1.00  0.00    -0.277 N 
ATOM     20  C   UNL     1       0.881 -13.968 -44.375  1.00  0.00     0.093 A 
ATOM     21  N   UNL     1      -0.297 -13.362 -44.582  1.00  0.00    -0.175 NA
ATOM     22  H   UNL     1      -0.717 -11.517 -45.313  1.00  0.00     0.190 HD
BRANCH  20  23
ATOM     23  C   UNL     1       1.018 -15.295 -43.843  1.00  0.00     0.033 C 
ATOM     24  C   UNL     1       0.313 -15.780 -42.806  1.00  0.00     0.030 C 
BRANCH  24  25
ATOM     25  C   UNL     1       0.434 -17.130 -42.248  1.00  0.00     0.063 A 
ATOM     26  C   UNL     1       1.531 -17.551 -41.501  1.00  0.00     0.028 A 
ATOM     27  N   UNL     1      -0.638 -17.926 -42.468  1.00  0.00    -0.257 NA
ATOM     28  C   UNL     1       1.536 -18.843 -40.978  1.00  0.00     0.004 A 
ATOM     29  C   UNL     1      -0.606 -19.175 -41.952  1.00  0.00     0.111 A 
ATOM     30  C   UNL     1       0.448 -19.675 -41.209  1.00  0.00     0.020 A 
ENDBRANCH  24  25
ENDBRANCH  20  23
ENDBRANCH   1  13
TORSDOF 5
ENDMDL
MODEL 6
REMARK VINA RESULT:    -7.795      8.778     11.435
REMARK INTER + INTRA:         -11.044
REMARK INTER:                 -10.134
REMARK INTRA:                  -0.911
REMARK UNBOUND:                -0.970
REMARK SMILES CNC(=O)c1ccccc1Sc1ccc2c(/C=C/c3ccccn3)n[nH]c2c1
REMARK SMILES IDX 11 1 10 2 5 3 6 4 7 5 9 6 8 7 3 8 2 9 4 10 1 11 12 13 13 14
REMARK SMILES IDX 28 15 14 16 27 17 15 18 26 19 16 20 25 21 17 23 18 24 19 25
REMARK SMILES IDX 20 26 24 27 21 28 23 29 22 30
REMARK H PARENT 2 12 26 22
ROOT
ATOM      1  S   UNL     1      -2.954  -8.547 -46.179  1.00  0.00    -0.089 SA
ENDROOT
BRANCH   1   2
ATOM      2  C   UNL     1      -3.794  -8.755 -44.609  1.00  0.00     0.025 A 
ATOM      3  C   UNL     1      -4.156  -7.693 -43.763  1.00  0.00     0.053 A 
ATOM      4  C   UNL     1      -4.869  -7.946 -42.580  1.00  0.00     0.015 A 
ATOM      5  C   UNL     1      -5.197  -9.251 -42.218  1.00  0.00     0.001 A 
ATOM      6  C   UNL     1      -4.128 -10.064 -44.226  1.00  0.00     0.016 A 
ATOM      7  C   UNL     1      -4.821 -10.311 -43.039  1.00  0.00     0.001 A 
BRANCH   3   8
ATOM      8  C   UNL     1      -3.858  -6.268 -44.050  1.00  0.00     0.252 C 
ATOM      9  N   UNL     1      -2.582  -5.842 -43.759  1.00  0.00    -0.355 N 
ATOM     10  O   UNL     1      -4.740  -5.543 -44.497  1.00  0.00    -0.269 OA
ATOM     11  C   UNL     1      -2.142  -4.513 -44.094  1.00  0.00     0.143 C 
ATOM     12  H   UNL     1      -1.879  -6.536 -43.532  1.00  0.00     0.163 HD
ENDBRANCH   3   8
ENDBRANCH   1   2
BRANCH   1  13
ATOM     13  C   UNL     1      -1.653  -9.763 -46.012  1.00  0.00     0.014 A 
ATOM     14  C   UNL     1      -0.565  -9.487 -45.177  1.00  0.00     0.016 A 
ATOM     15  C   UNL     1      -1.711 -10.969 -46.725  1.00  0.00     0.043 A 
ATOM     16  C   UNL     1       0.479 -10.411 -45.018  1.00  0.00     0.014 A 
ATOM     17  C   UNL     1      -0.663 -11.878 -46.543  1.00  0.00     0.067 A 
ATOM     18  C   UNL     1       0.424 -11.636 -45.713  1.00  0.00     0.027 A 
ATOM     19  N   UNL     1      -0.443 -13.119 -47.072  1.00  0.00    -0.277 N 
ATOM     20  C   UNL     1       1.240 -12.805 -45.824  1.00  0.00     0.093 A 
ATOM     21  N   UNL     1       0.691 -13.703 -46.655  1.00  0.00    -0.175 NA
ATOM     22  H   UNL     1      -1.033 -13.627 -47.721  1.00  0.00     0.190 HD
BRANCH  20  23
ATOM     23  C   UNL     1       2.482 -13.006 -45.132  1.00  0.00     0.033 C 
ATOM     24  C   UNL     1       3.676 -12.556 -45.557  1.00  0.00     0.030 C 
BRANCH  24  25
ATOM     25  C   UNL     1       4.955 -12.747 -44.867  1.00  0.00     0.063 A 
ATOM     26  C   UNL     1       6.124 -12.086 -45.235  1.00  0.00     0.028 A 
ATOM     27  N   UNL     1       4.898 -13.577 -43.800  1.00  0.00    -0.257 NA
ATOM     28  C   UNL     1       7.284 -12.302 -44.491  1.00  0.00     0.004 A 
ATOM     29  C   UNL     1       6.037 -13.770 -43.098  1.00  0.00     0.111 A 
ATOM     30  C   UNL     1       7.243 -13.164 -43.403  1.00  0.00     0.020 A 
ENDBRANCH  24  25
ENDBRANCH  20  23
ENDBRANCH   1  13
TORSDOF 5
ENDMDL
MODEL 7
REMARK VINA RESULT:    -7.795      3.485      4.546
REMARK INTER + INTRA:         -11.044
REMARK INTER:                 -10.121
REMARK INTRA:                  -0.923
REMARK UNBOUND:                -0.970
REMARK SMILES CNC(=O)c1ccccc1Sc1ccc2c(/C=C/c3ccccn3)n[nH]c2c1
REMARK SMILES IDX 11 1 10 2 5 3 6 4 7 5 9 6 8 7 3 8 2 9 4 10 1 11 12 13 13 14
REMARK SMILES IDX 28 15 14 16 27 17 15 18 26 19 16 20 25 21 17 23 18 24 19 25
REMARK SMILES IDX 20 26 24 27 21 28 23 29 22 30
REMARK H PARENT 2 12 26 22
ROOT
ATOM      1  S   UNL     1       6.650 -12.652 -45.246  1.00  0.00    -0.089 SA
ENDROOT
BRANCH   1   2
ATOM      2  C   UNL     1       6.782 -11.053 -44.448  1.00  0.00     0.025 A 
ATOM      3  C   UNL     1       7.230 -10.865 -43.129  1.00  0.00     0.053 A 
ATOM      4  C   UNL     1       7.361  -9.568 -42.607  1.00  0.00     0.015 A 
ATOM      5  C   UNL     1       7.018  -8.458 -43.377  1.00  0.00     0.001 A 
ATOM      6  C   UNL     1       6.436  -9.924 -45.208  1.00  0.00     0.016 A 
ATOM      7  C   UNL     1       6.550  -8.638 -44.677  1.00  0.00     0.001 A 
BRANCH   3   8
ATOM      8  C   UNL     1       7.621 -11.974 -42.223  1.00  0.00     0.252 C 
ATOM      9  N   UNL     1       8.944 -12.351 -42.258  1.00  0.00    -0.355 N 
ATOM     10  O   UNL     1       6.771 -12.510 -41.521  1.00  0.00    -0.269 OA
ATOM     11  C   UNL     1       9.464 -13.340 -41.350  1.00  0.00     0.143 C 
ATOM     12  H   UNL     1       9.603 -11.763 -42.755  1.00  0.00     0.163 HD
ENDBRANCH   3   8
ENDBRANCH   1   2
BRANCH   1  13
ATOM     13  C   UNL     1       4.954 -13.067 -44.861  1.00  0.00     0.014 A 
ATOM     14  C   UNL     1       4.681 -14.254 -44.174  1.00  0.00     0.016 A 
ATOM     15  C   UNL     1       3.908 -12.224 -45.262  1.00  0.00     0.043 A 
ATOM     16  C   UNL     1       3.365 -14.620 -43.853  1.00  0.00     0.014 A 
ATOM     17  C   UNL     1       2.605 -12.606 -44.923  1.00  0.00     0.067 A 
ATOM     18  C   UNL     1       2.305 -13.773 -44.232  1.00  0.00     0.027 A 
ATOM     19  N   UNL     1       1.400 -12.002 -45.151  1.00  0.00    -0.277 N 
ATOM     20  C   UNL     1       0.881 -13.768 -44.102  1.00  0.00     0.093 A 
ATOM     21  N   UNL     1       0.346 -12.675 -44.666  1.00  0.00    -0.175 NA
ATOM     22  H   UNL     1       1.229 -11.124 -45.628  1.00  0.00     0.190 HD
BRANCH  20  23
ATOM     23  C   UNL     1       0.115 -14.791 -43.448  1.00  0.00     0.033 C 
ATOM     24  C   UNL     1      -0.473 -15.826 -44.074  1.00  0.00     0.030 C 
BRANCH  24  25
ATOM     25  C   UNL     1      -1.256 -16.882 -43.427  1.00  0.00     0.063 A 
ATOM     26  C   UNL     1      -0.685 -17.885 -42.647  1.00  0.00     0.028 A 
ATOM     27  N   UNL     1      -2.594 -16.774 -43.600  1.00  0.00    -0.257 NA
ATOM     28  C   UNL     1      -1.518 -18.823 -42.039  1.00  0.00     0.004 A 
ATOM     29  C   UNL     1      -3.378 -17.698 -43.001  1.00  0.00     0.111 A 
ATOM     30  C   UNL     1      -2.892 -18.733 -42.221  1.00  0.00     0.020 A 
ENDBRANCH  24  25
ENDBRANCH  20  23
ENDBRANCH   1  13
TORSDOF 5
ENDMDL
MODEL 8
REMARK VINA RESULT:    -7.790      7.316      8.938
REMARK INTER + INTRA:         -11.037
REMARK INTER:                 -10.098
REMARK INTRA:                  -0.940
REMARK UNBOUND:                -0.970
REMARK SMILES CNC(=O)c1ccccc1Sc1ccc2c(/C=C/c3ccccn3)n[nH]c2c1
REMARK SMILES IDX 11 1 10 2 5 3 6 4 7 5 9 6 8 7 3 8 2 9 4 10 1 11 12 13 13 14
REMARK SMILES IDX 28 15 14 16 27 17 15 18 26 19 16 20 25 21 17 23 18 24 19 25
REMARK SMILES IDX 20 26 24 27 21 28 23 29 22 30
REMARK H PARENT 2 12 26 22
ROOT
ATOM      1  S   UNL     1       5.107  -9.400 -46.310  1.00  0.00    -0.089 SA
ENDROOT
BRANCH   1   2
ATOM      2  C   UNL     1       6.091  -9.630 -44.829  1.00  0.00     0.025 A 
ATOM      3  C   UNL     1       6.484  -8.585 -43.974  1.00  0.00     0.053 A 
ATOM      4  C   UNL     1       7.202  -8.868 -42.801  1.00  0.00     0.015 A 
ATOM      5  C   UNL     1       7.560 -10.178 -42.489  1.00  0.00     0.001 A 
ATOM      6  C   UNL     1       6.464 -10.944 -44.502  1.00  0.00     0.016 A 
ATOM      7  C   UNL     1       7.195 -11.216 -43.344  1.00  0.00     0.001 A 
BRANCH   3   8
ATOM      8  C   UNL     1       6.157  -7.157 -44.210  1.00  0.00     0.252 C 
ATOM      9  N   UNL     1       6.811  -6.548 -45.257  1.00  0.00    -0.355 N 
ATOM     10  O   UNL     1       5.363  -6.587 -43.470  1.00  0.00    -0.269 OA
ATOM     11  C   UNL     1       6.499  -5.199 -45.650  1.00  0.00     0.143 C 
ATOM     12  H   UNL     1       7.336  -7.127 -45.902  1.00  0.00     0.163 HD
ENDBRANCH   3   8
ENDBRANCH   1   2
BRANCH   1  13
ATOM     13  C   UNL     1       3.472  -9.730 -45.664  1.00  0.00     0.014 A 
ATOM     14  C   UNL     1       2.714  -8.670 -45.155  1.00  0.00     0.016 A 
ATOM     15  C   UNL     1       2.964 -11.036 -45.650  1.00  0.00     0.043 A 
ATOM     16  C   UNL     1       1.427  -8.884 -44.637  1.00  0.00     0.014 A 
ATOM     17  C   UNL     1       1.675 -11.222 -45.137  1.00  0.00     0.067 A 
ATOM     18  C   UNL     1       0.896 -10.189 -44.634  1.00  0.00     0.027 A 
ATOM     19  N   UNL     1       0.911 -12.348 -45.004  1.00  0.00    -0.277 N 
ATOM     20  C   UNL     1      -0.323 -10.813 -44.222  1.00  0.00     0.093 A 
ATOM     21  N   UNL     1      -0.297 -12.132 -44.461  1.00  0.00    -0.175 NA
ATOM     22  H   UNL     1       1.155 -13.295 -45.271  1.00  0.00     0.190 HD
BRANCH  20  23
ATOM     23  C   UNL     1      -1.439 -10.125 -43.637  1.00  0.00     0.033 C 
ATOM     24  C   UNL     1      -2.530  -9.723 -44.312  1.00  0.00     0.030 C 
BRANCH  24  25
ATOM     25  C   UNL     1      -3.681  -9.023 -43.736  1.00  0.00     0.063 A 
ATOM     26  C   UNL     1      -4.789  -9.682 -43.210  1.00  0.00     0.028 A 
ATOM     27  N   UNL     1      -3.558  -7.675 -43.701  1.00  0.00    -0.257 NA
ATOM     28  C   UNL     1      -5.818  -8.930 -42.647  1.00  0.00     0.004 A 
ATOM     29  C   UNL     1      -4.571  -6.970 -43.151  1.00  0.00     0.111 A 
ATOM     30  C   UNL     1      -5.711  -7.545 -42.618  1.00  0.00     0.020 A 
ENDBRANCH  24  25
ENDBRANCH  20  23
ENDBRANCH   1  13
TORSDOF 5
ENDMDL
MODEL 9
REMARK VINA RESULT:    -7.782      7.531      9.114
REMARK INTER + INTRA:         -11.027
REMARK INTER:                  -9.976
REMARK INTRA:                  -1.050
REMARK UNBOUND:                -0.970
REMARK SMILES CNC(=O)c1ccccc1Sc1ccc2c(/C=C/c3ccccn3)n[nH]c2c1
REMARK SMILES IDX 11 1 10 2 5 3 6 4 7 5 9 6 8 7 3 8 2 9 4 10 1 11 12 13 13 14
REMARK SMILES IDX 28 15 14 16 27 17 15 18 26 19 16 20 25 21 17 23 18 24 19 25
REMARK SMILES IDX 20 26 24 27 21 28 23 29 22 30
REMARK H PARENT 2 12 26 22
ROOT
ATOM      1  S   UNL     1       4.680  -9.198 -46.347  1.00  0.00    -0.089 SA
ENDROOT
BRANCH   1   2
ATOM      2  C   UNL     1       5.659  -9.280 -44.848  1.00  0.00     0.025 A 
ATOM      3  C   UNL     1       6.388 -10.412 -44.444  1.00  0.00     0.053 A 
ATOM      4  C   UNL     1       7.178 -10.365 -43.284  1.00  0.00     0.015 A 
ATOM      5  C   UNL     1       7.225  -9.208 -42.507  1.00  0.00     0.001 A 
ATOM      6  C   UNL     1       5.714  -8.125 -44.050  1.00  0.00     0.016 A 
ATOM      7  C   UNL     1       6.487  -8.090 -42.888  1.00  0.00     0.001 A 
BRANCH   3   8
ATOM      8  C   UNL     1       6.410 -11.692 -45.194  1.00  0.00     0.252 C 
ATOM      9  N   UNL     1       5.440 -12.611 -44.860  1.00  0.00    -0.355 N 
ATOM     10  O   UNL     1       7.279 -11.885 -46.037  1.00  0.00    -0.269 OA
ATOM     11  C   UNL     1       5.293 -13.842 -45.591  1.00  0.00     0.143 C 
ATOM     12  H   UNL     1       4.679 -12.315 -44.260  1.00  0.00     0.163 HD
ENDBRANCH   3   8
ENDBRANCH   1   2
BRANCH   1  13
ATOM     13  C   UNL     1       3.045  -9.486 -45.681  1.00  0.00     0.014 A 
ATOM     14  C   UNL     1       2.304  -8.401 -45.199  1.00  0.00     0.016 A 
ATOM     15  C   UNL     1       2.521 -10.785 -45.622  1.00  0.00     0.043 A 
ATOM     16  C   UNL     1       1.019  -8.582 -44.666  1.00  0.00     0.014 A 
ATOM     17  C   UNL     1       1.234 -10.938 -45.094  1.00  0.00     0.067 A 
ATOM     18  C   UNL     1       0.471  -9.879 -44.619  1.00  0.00     0.027 A 
ATOM     19  N   UNL     1       0.456 -12.048 -44.922  1.00  0.00    -0.277 N 
ATOM     20  C   UNL     1      -0.752 -10.475 -44.180  1.00  0.00     0.093 A 
ATOM     21  N   UNL     1      -0.745 -11.801 -44.378  1.00  0.00    -0.175 NA
ATOM     22  H   UNL     1       0.686 -13.007 -45.160  1.00  0.00     0.190 HD
BRANCH  20  23
ATOM     23  C   UNL     1      -1.856  -9.754 -43.609  1.00  0.00     0.033 C 
ATOM     24  C   UNL     1      -2.676  -8.940 -44.296  1.00  0.00     0.030 C 
BRANCH  24  25
ATOM     25  C   UNL     1      -3.808  -8.198 -43.736  1.00  0.00     0.063 A 
ATOM     26  C   UNL     1      -4.809  -8.796 -42.973  1.00  0.00     0.028 A 
ATOM     27  N   UNL     1      -3.777  -6.865 -43.969  1.00  0.00    -0.257 NA
ATOM     28  C   UNL     1      -5.825  -7.999 -42.449  1.00  0.00     0.004 A 
ATOM     29  C   UNL     1      -4.775  -6.116 -43.451  1.00  0.00     0.111 A 
ATOM     30  C   UNL     1      -5.813  -6.632 -42.694  1.00  0.00     0.020 A 
ENDBRANCH  24  25
ENDBRANCH  20  23
ENDBRANCH   1  13
TORSDOF 5
ENDMDL
MODEL 10
REMARK VINA RESULT:    -7.771      4.947      9.470
REMARK INTER + INTRA:         -11.012
REMARK INTER:                 -10.225
REMARK INTRA:                  -0.787
REMARK UNBOUND:                -0.970
REMARK SMILES CNC(=O)c1ccccc1Sc1ccc2c(/C=C/c3ccccn3)n[nH]c2c1
REMARK SMILES IDX 11 1 10 2 5 3 6 4 7 5 9 6 8 7 3 8 2 9 4 10 1 11 12 13 13 14
REMARK SMILES IDX 28 15 14 16 27 17 15 18 26 19 16 20 25 21 17 23 18 24 19 25
REMARK SMILES IDX 20 26 24 27 21 28 23 29 22 30
REMARK H PARENT 2 12 26 22
ROOT
ATOM      1  S   UNL     1       1.796 -19.884 -40.283  1.00  0.00    -0.089 SA
ENDROOT
BRANCH   1   2
ATOM      2  C   UNL     1       0.713 -18.910 -41.326  1.00  0.00     0.025 A 
ATOM      3  C   UNL     1      -0.436 -19.416 -41.960  1.00  0.00     0.053 A 
ATOM      4  C   UNL     1      -1.261 -18.562 -42.709  1.00  0.00     0.015 A 
ATOM      5  C   UNL     1      -0.936 -17.215 -42.859  1.00  0.00     0.001 A 
ATOM      6  C   UNL     1       1.028 -17.551 -41.492  1.00  0.00     0.016 A 
ATOM      7  C   UNL     1       0.213 -16.712 -42.254  1.00  0.00     0.001 A 
BRANCH   3   8
ATOM      8  C   UNL     1      -0.875 -20.830 -41.867  1.00  0.00     0.252 C 
ATOM      9  N   UNL     1      -2.085 -21.053 -41.251  1.00  0.00    -0.355 N 
ATOM     10  O   UNL     1      -0.153 -21.719 -42.306  1.00  0.00    -0.269 OA
ATOM     11  C   UNL     1      -2.666 -22.369 -41.196  1.00  0.00     0.143 C 
ATOM     12  H   UNL     1      -2.680 -20.257 -41.049  1.00  0.00     0.163 HD
ENDBRANCH   3   8
ENDBRANCH   1   2
BRANCH   1  13
ATOM     13  C   UNL     1       3.297 -19.849 -41.255  1.00  0.00     0.014 A 
ATOM     14  C   UNL     1       4.188 -18.781 -41.095  1.00  0.00     0.016 A 
ATOM     15  C   UNL     1       3.569 -20.866 -42.179  1.00  0.00     0.043 A 
ATOM     16  C   UNL     1       5.376 -18.713 -41.839  1.00  0.00     0.014 A 
ATOM     17  C   UNL     1       4.764 -20.780 -42.902  1.00  0.00     0.067 A 
ATOM     18  C   UNL     1       5.672 -19.738 -42.758  1.00  0.00     0.027 A 
ATOM     19  N   UNL     1       5.311 -21.606 -43.844  1.00  0.00    -0.277 N 
ATOM     20  C   UNL     1       6.730 -20.043 -43.670  1.00  0.00     0.093 A 
ATOM     21  N   UNL     1       6.494 -21.191 -44.321  1.00  0.00    -0.175 NA
ATOM     22  H   UNL     1       4.927 -22.474 -44.202  1.00  0.00     0.190 HD
BRANCH  20  23
ATOM     23  C   UNL     1       7.902 -19.237 -43.864  1.00  0.00     0.033 C 
ATOM     24  C   UNL     1       7.927 -18.072 -44.536  1.00  0.00     0.030 C 
BRANCH  24  25
ATOM     25  C   UNL     1       9.109 -17.232 -44.744  1.00  0.00     0.063 A 
ATOM     26  C   UNL     1       9.781 -16.591 -43.706  1.00  0.00     0.028 A 
ATOM     27  N   UNL     1       9.536 -17.171 -46.027  1.00  0.00    -0.257 NA
ATOM     28  C   UNL     1      10.921 -15.844 -43.999  1.00  0.00     0.004 A 
ATOM     29  C   UNL     1      10.642 -16.439 -46.283  1.00  0.00     0.111 A 
ATOM     30  C   UNL     1      11.361 -15.762 -45.313  1.00  0.00     0.020 A 
ENDBRANCH  24  25
ENDBRANCH  20  23
ENDBRANCH   1  13
TORSDOF 5
ENDMDL
MODEL 11
REMARK VINA RESULT:    -7.720      3.634      4.694
REMARK INTER + INTRA:         -10.947
REMARK INTER:                 -10.128
REMARK INTRA:                  -0.819
REMARK UNBOUND:                -0.970
REMARK SMILES CNC(=O)c1ccccc1Sc1ccc2c(/C=C/c3ccccn3)n[nH]c2c1
REMARK SMILES IDX 11 1 10 2 5 3 6 4 7 5 9 6 8 7 3 8 2 9 4 10 1 11 12 13 13 14
REMARK SMILES IDX 28 15 14 16 27 17 15 18 26 19 16 20 25 21 17 23 18 24 19 25
REMARK SMILES IDX 20 26 24 27 21 28 23 29 22 30
REMARK H PARENT 2 12 26 22
ROOT
ATOM      1  S   UNL     1       7.286 -13.890 -44.864  1.00  0.00    -0.089 SA
ENDROOT
BRANCH   1   2
ATOM      2  C   UNL     1       7.550 -13.151 -43.253  1.00  0.00     0.025 A 
ATOM      3  C   UNL     1       7.384 -11.782 -42.977  1.00  0.00     0.053 A 
ATOM      4  C   UNL     1       7.551 -11.302 -41.668  1.00  0.00     0.015 A 
ATOM      5  C   UNL     1       7.914 -12.168 -40.638  1.00  0.00     0.001 A 
ATOM      6  C   UNL     1       7.920 -14.008 -42.204  1.00  0.00     0.016 A 
ATOM      7  C   UNL     1       8.104 -13.521 -40.908  1.00  0.00     0.001 A 
BRANCH   3   8
ATOM      8  C   UNL     1       7.000 -10.775 -43.996  1.00  0.00     0.252 C 
ATOM      9  N   UNL     1       7.958  -9.842 -44.321  1.00  0.00    -0.355 N 
ATOM     10  O   UNL     1       5.871 -10.796 -44.474  1.00  0.00    -0.269 OA
ATOM     11  C   UNL     1       7.741  -8.881 -45.371  1.00  0.00     0.143 C 
ATOM     12  H   UNL     1       8.905  -9.984 -43.989  1.00  0.00     0.163 HD
ENDBRANCH   3   8
ENDBRANCH   1   2
BRANCH   1  13
ATOM     13  C   UNL     1       5.545 -14.285 -44.757  1.00  0.00     0.014 A 
ATOM     14  C   UNL     1       5.101 -15.142 -43.743  1.00  0.00     0.016 A 
ATOM     15  C   UNL     1       4.639 -13.761 -45.689  1.00  0.00     0.043 A 
ATOM     16  C   UNL     1       3.745 -15.480 -43.624  1.00  0.00     0.014 A 
ATOM     17  C   UNL     1       3.291 -14.106 -45.543  1.00  0.00     0.067 A 
ATOM     18  C   UNL     1       2.820 -14.945 -44.541  1.00  0.00     0.027 A 
ATOM     19  N   UNL     1       2.185 -13.751 -46.265  1.00  0.00    -0.277 N 
ATOM     20  C   UNL     1       1.409 -15.026 -44.762  1.00  0.00     0.093 A 
ATOM     21  N   UNL     1       1.039 -14.286 -45.817  1.00  0.00    -0.175 NA
ATOM     22  H   UNL     1       2.146 -13.141 -47.074  1.00  0.00     0.190 HD
BRANCH  20  23
ATOM     23  C   UNL     1       0.497 -15.790 -43.958  1.00  0.00     0.033 C 
ATOM     24  C   UNL     1      -0.647 -16.336 -44.408  1.00  0.00     0.030 C 
BRANCH  24  25
ATOM     25  C   UNL     1      -1.590 -17.121 -43.608  1.00  0.00     0.063 A 
ATOM     26  C   UNL     1      -1.191 -18.101 -42.703  1.00  0.00     0.028 A 
ATOM     27  N   UNL     1      -2.889 -16.778 -43.775  1.00  0.00    -0.257 NA
ATOM     28  C   UNL     1      -2.162 -18.768 -41.957  1.00  0.00     0.004 A 
ATOM     29  C   UNL     1      -3.810 -17.442 -43.042  1.00  0.00     0.111 A 
ATOM     30  C   UNL     1      -3.499 -18.436 -42.131  1.00  0.00     0.020 A 
ENDBRANCH  24  25
ENDBRANCH  20  23
ENDBRANCH   1  13
TORSDOF 5
ENDMDL
MODEL 12
REMARK VINA RESULT:    -7.720      7.780      9.503
REMARK INTER + INTRA:         -10.947
REMARK INTER:                 -10.078
REMARK INTRA:                  -0.869
REMARK UNBOUND:                -0.970
REMARK SMILES CNC(=O)c1ccccc1Sc1ccc2c(/C=C/c3ccccn3)n[nH]c2c1
REMARK SMILES IDX 11 1 10 2 5 3 6 4 7 5 9 6 8 7 3 8 2 9 4 10 1 11 12 13 13 14
REMARK SMILES IDX 28 15 14 16 27 17 15 18 26 19 16 20 25 21 17 23 18 24 19 25
REMARK SMILES IDX 20 26 24 27 21 28 23 29 22 30
REMARK H PARENT 2 12 26 22
ROOT
ATOM      1  S   UNL     1       5.688  -9.425 -46.441  1.00  0.00    -0.089 SA
ENDROOT
BRANCH   1   2
ATOM      2  C   UNL     1       6.426  -9.640 -44.822  1.00  0.00     0.025 A 
ATOM      3  C   UNL     1       6.626  -8.596 -43.902  1.00  0.00     0.053 A 
ATOM      4  C   UNL     1       7.155  -8.868 -42.630  1.00  0.00     0.015 A 
ATOM      5  C   UNL     1       7.515 -10.168 -42.278  1.00  0.00     0.001 A 
ATOM      6  C   UNL     1       6.799 -10.942 -44.452  1.00  0.00     0.016 A 
ATOM      7  C   UNL     1       7.342 -11.204 -43.192  1.00  0.00     0.001 A 
BRANCH   3   8
ATOM      8  C   UNL     1       6.279  -7.179 -44.173  1.00  0.00     0.252 C 
ATOM      9  N   UNL     1       6.981  -6.562 -45.183  1.00  0.00    -0.355 N 
ATOM     10  O   UNL     1       5.426  -6.623 -43.490  1.00  0.00    -0.269 OA
ATOM     11  C   UNL     1       6.661  -5.225 -45.609  1.00  0.00     0.143 C 
ATOM     12  H   UNL     1       7.561  -7.132 -45.789  1.00  0.00     0.163 HD
ENDBRANCH   3   8
ENDBRANCH   1   2
BRANCH   1  13
ATOM     13  C   UNL     1       3.999  -9.060 -45.980  1.00  0.00     0.014 A 
ATOM     14  C   UNL     1       3.249 -10.034 -45.313  1.00  0.00     0.016 A 
ATOM     15  C   UNL     1       3.427  -7.821 -46.301  1.00  0.00     0.043 A 
ATOM     16  C   UNL     1       1.919  -9.791 -44.935  1.00  0.00     0.014 A 
ATOM     17  C   UNL     1       2.103  -7.600 -45.906  1.00  0.00     0.067 A 
ATOM     18  C   UNL     1       1.337  -8.544 -45.234  1.00  0.00     0.027 A 
ATOM     19  N   UNL     1       1.288  -6.513 -46.053  1.00  0.00    -0.277 N 
ATOM     20  C   UNL     1       0.071  -7.913 -45.030  1.00  0.00     0.093 A 
ATOM     21  N   UNL     1       0.061  -6.670 -45.533  1.00  0.00    -0.175 NA
ATOM     22  H   UNL     1       1.511  -5.628 -46.496  1.00  0.00     0.190 HD
BRANCH  20  23
ATOM     23  C   UNL     1      -1.049  -8.519 -44.366  1.00  0.00     0.033 C 
ATOM     24  C   UNL     1      -2.338  -8.278 -44.665  1.00  0.00     0.030 C 
BRANCH  24  25
ATOM     25  C   UNL     1      -3.496  -8.887 -44.004  1.00  0.00     0.063 A 
ATOM     26  C   UNL     1      -3.790 -10.246 -44.080  1.00  0.00     0.028 A 
ATOM     27  N   UNL     1      -4.232  -8.028 -43.259  1.00  0.00    -0.257 NA
ATOM     28  C   UNL     1      -4.892 -10.738 -43.383  1.00  0.00     0.004 A 
ATOM     29  C   UNL     1      -5.296  -8.531 -42.595  1.00  0.00     0.111 A 
ATOM     30  C   UNL     1      -5.664  -9.865 -42.627  1.00  0.00     0.020 A 
ENDBRANCH  24  25
ENDBRANCH  20  23
ENDBRANCH   1  13
TORSDOF 5
ENDMDL
MODEL 13
REMARK VINA RESULT:    -7.705      5.480      6.408
REMARK INTER + INTRA:         -10.927
REMARK INTER:                 -10.659
REMARK INTRA:                  -0.269
REMARK UNBOUND:                -0.970
REMARK SMILES CNC(=O)c1ccccc1Sc1ccc2c(/C=C/c3ccccn3)n[nH]c2c1
REMARK SMILES IDX 11 1 10 2 5 3 6 4 7 5 9 6 8 7 3 8 2 9 4 10 1 11 12 13 13 14
REMARK SMILES IDX 28 15 14 16 27 17 15 18 26 19 16 20 25 21 17 23 18 24 19 25
REMARK SMILES IDX 20 26 24 27 21 28 23 29 22 30
REMARK H PARENT 2 12 26 22
ROOT
ATOM      1  S   UNL     1       2.184  -8.490 -44.635  1.00  0.00    -0.089 SA
ENDROOT
BRANCH   1   2
ATOM      2  C   UNL     1       3.960  -8.624 -44.432  1.00  0.00     0.025 A 
ATOM      3  C   UNL     1       4.709  -7.854 -43.525  1.00  0.00     0.053 A 
ATOM      4  C   UNL     1       6.090  -8.071 -43.390  1.00  0.00     0.015 A 
ATOM      5  C   UNL     1       6.736  -9.028 -44.172  1.00  0.00     0.001 A 
ATOM      6  C   UNL     1       4.627  -9.579 -45.215  1.00  0.00     0.016 A 
ATOM      7  C   UNL     1       6.004  -9.778 -45.089  1.00  0.00     0.001 A 
BRANCH   3   8
ATOM      8  C   UNL     1       4.125  -6.811 -42.646  1.00  0.00     0.252 C 
ATOM      9  N   UNL     1       4.144  -7.074 -41.295  1.00  0.00    -0.355 N 
ATOM     10  O   UNL     1       3.640  -5.801 -43.144  1.00  0.00    -0.269 OA
ATOM     11  C   UNL     1       3.704  -6.094 -40.336  1.00  0.00     0.143 C 
ATOM     12  H   UNL     1       4.690  -7.860 -40.962  1.00  0.00     0.163 HD
ENDBRANCH   3   8
ENDBRANCH   1   2
BRANCH   1  13
ATOM     13  C   UNL     1       1.721 -10.216 -44.565  1.00  0.00     0.014 A 
ATOM     14  C   UNL     1       1.014 -10.688 -43.454  1.00  0.00     0.016 A 
ATOM     15  C   UNL     1       2.078 -11.090 -45.601  1.00  0.00     0.043 A 
ATOM     16  C   UNL     1       0.632 -12.035 -43.357  1.00  0.00     0.014 A 
ATOM     17  C   UNL     1       1.678 -12.426 -45.486  1.00  0.00     0.067 A 
ATOM     18  C   UNL     1       0.968 -12.921 -44.399  1.00  0.00     0.027 A 
ATOM     19  N   UNL     1       1.855 -13.496 -46.318  1.00  0.00    -0.277 N 
ATOM     20  C   UNL     1       0.774 -14.308 -44.687  1.00  0.00     0.093 A 
ATOM     21  N   UNL     1       1.319 -14.640 -45.867  1.00  0.00    -0.175 NA
ATOM     22  H   UNL     1       2.329 -13.510 -47.214  1.00  0.00     0.190 HD
BRANCH  20  23
ATOM     23  C   UNL     1       0.080 -15.232 -43.835  1.00  0.00     0.033 C 
ATOM     24  C   UNL     1      -0.753 -16.195 -44.269  1.00  0.00     0.030 C 
BRANCH  24  25
ATOM     25  C   UNL     1      -1.469 -17.151 -43.419  1.00  0.00     0.063 A 
ATOM     26  C   UNL     1      -2.858 -17.247 -43.384  1.00  0.00     0.028 A 
ATOM     27  N   UNL     1      -0.669 -17.979 -42.708  1.00  0.00    -0.257 NA
ATOM     28  C   UNL     1      -3.447 -18.216 -42.574  1.00  0.00     0.004 A 
ATOM     29  C   UNL     1      -1.267 -18.907 -41.928  1.00  0.00     0.111 A 
ATOM     30  C   UNL     1      -2.638 -19.062 -41.827  1.00  0.00     0.020 A 
ENDBRANCH  24  25
ENDBRANCH  20  23
ENDBRANCH   1  13
TORSDOF 5
ENDMDL
MODEL 14
REMARK VINA RESULT:    -7.678      7.523      9.500
REMARK INTER + INTRA:         -10.893
REMARK INTER:                  -9.909
REMARK INTRA:                  -0.983
REMARK UNBOUND:                -0.970
REMARK SMILES CNC(=O)c1ccccc1Sc1ccc2c(/C=C/c3ccccn3)n[nH]c2c1
REMARK SMILES IDX 11 1 10 2 5 3 6 4 7 5 9 6 8 7 3 8 2 9 4 10 1 11 12 13 13 14
REMARK SMILES IDX 28 15 14 16 27 17 15 18 26 19 16 20 25 21 17 23 18 24 19 25
REMARK SMILES IDX 20 26 24 27 21 28 23 29 22 30
REMARK H PARENT 2 12 26 22
ROOT
ATOM      1  S   UNL     1       4.945  -9.228 -46.563  1.00  0.00    -0.089 SA
ENDROOT
BRANCH   1   2
ATOM      2  C   UNL     1       5.799  -9.281 -44.988  1.00  0.00     0.025 A 
ATOM      3  C   UNL     1       6.463 -10.416 -44.490  1.00  0.00     0.053 A 
ATOM      4  C   UNL     1       7.160 -10.346 -43.273  1.00  0.00     0.015 A 
ATOM      5  C   UNL     1       7.175  -9.165 -42.533  1.00  0.00     0.001 A 
ATOM      6  C   UNL     1       5.820  -8.101 -44.227  1.00  0.00     0.016 A 
ATOM      7  C   UNL     1       6.499  -8.044 -43.009  1.00  0.00     0.001 A 
BRANCH   3   8
ATOM      8  C   UNL     1       6.511 -11.721 -45.194  1.00  0.00     0.252 C 
ATOM      9  N   UNL     1       5.507 -12.613 -44.891  1.00  0.00    -0.355 N 
ATOM     10  O   UNL     1       7.429 -11.956 -45.972  1.00  0.00    -0.269 OA
ATOM     11  C   UNL     1       5.386 -13.867 -45.588  1.00  0.00     0.143 C 
ATOM     12  H   UNL     1       4.714 -12.285 -44.352  1.00  0.00     0.163 HD
ENDBRANCH   3   8
ENDBRANCH   1   2
BRANCH   1  13
ATOM     13  C   UNL     1       3.308  -8.747 -46.027  1.00  0.00     0.014 A 
ATOM     14  C   UNL     1       2.522  -9.668 -45.326  1.00  0.00     0.016 A 
ATOM     15  C   UNL     1       2.810  -7.471 -46.323  1.00  0.00     0.043 A 
ATOM     16  C   UNL     1       1.232  -9.334 -44.888  1.00  0.00     0.014 A 
ATOM     17  C   UNL     1       1.524  -7.158 -45.868  1.00  0.00     0.067 A 
ATOM     18  C   UNL     1       0.725  -8.048 -45.161  1.00  0.00     0.027 A 
ATOM     19  N   UNL     1       0.781  -6.016 -45.979  1.00  0.00    -0.277 N 
ATOM     20  C   UNL     1      -0.484  -7.330 -44.901  1.00  0.00     0.093 A 
ATOM     21  N   UNL     1      -0.429  -6.088 -45.404  1.00  0.00    -0.175 NA
ATOM     22  H   UNL     1       1.045  -5.148 -46.432  1.00  0.00     0.190 HD
BRANCH  20  23
ATOM     23  C   UNL     1      -1.612  -7.858 -44.187  1.00  0.00     0.033 C 
ATOM     24  C   UNL     1      -2.617  -8.552 -44.749  1.00  0.00     0.030 C 
BRANCH  24  25
ATOM     25  C   UNL     1      -3.776  -9.102 -44.040  1.00  0.00     0.063 A 
ATOM     26  C   UNL     1      -4.122 -10.451 -44.077  1.00  0.00     0.028 A 
ATOM     27  N   UNL     1      -4.457  -8.202 -43.294  1.00  0.00    -0.257 NA
ATOM     28  C   UNL     1      -5.219 -10.886 -43.336  1.00  0.00     0.004 A 
ATOM     29  C   UNL     1      -5.518  -8.650 -42.587  1.00  0.00     0.111 A 
ATOM     30  C   UNL     1      -5.936  -9.969 -42.578  1.00  0.00     0.020 A 
ENDBRANCH  24  25
ENDBRANCH  20  23
ENDBRANCH   1  13
TORSDOF 5
ENDMDL
MODEL 15
REMARK VINA RESULT:    -7.576      1.711      2.522
REMARK INTER + INTRA:         -10.761
REMARK INTER:                 -10.121
REMARK INTRA:                  -0.640
REMARK UNBOUND:                -0.970
REMARK SMILES CNC(=O)c1ccccc1Sc1ccc2c(/C=C/c3ccccn3)n[nH]c2c1
REMARK SMILES IDX 11 1 10 2 5 3 6 4 7 5 9 6 8 7 3 8 2 9 4 10 1 11 12 13 13 14
REMARK SMILES IDX 28 15 14 16 27 17 15 18 26 19 16 20 25 21 17 23 18 24 19 25
REMARK SMILES IDX 20 26 24 27 21 28 23 29 22 30
REMARK H PARENT 2 12 26 22
ROOT
ATOM      1  S   UNL     1       7.580 -14.383 -43.717  1.00  0.00    -0.089 SA
ENDROOT
BRANCH   1   2
ATOM      2  C   UNL     1       9.148 -14.747 -42.928  1.00  0.00     0.025 A 
ATOM      3  C   UNL     1       9.648 -14.053 -41.812  1.00  0.00     0.053 A 
ATOM      4  C   UNL     1      10.858 -14.449 -41.220  1.00  0.00     0.015 A 
ATOM      5  C   UNL     1      11.590 -15.511 -41.750  1.00  0.00     0.001 A 
ATOM      6  C   UNL     1       9.901 -15.810 -43.451  1.00  0.00     0.016 A 
ATOM      7  C   UNL     1      11.113 -16.187 -42.870  1.00  0.00     0.001 A 
BRANCH   3   8
ATOM      8  C   UNL     1       8.952 -12.912 -41.169  1.00  0.00     0.252 C 
ATOM      9  N   UNL     1       8.537 -11.901 -42.007  1.00  0.00    -0.355 N 
ATOM     10  O   UNL     1       8.802 -12.901 -39.952  1.00  0.00    -0.269 OA
ATOM     11  C   UNL     1       7.758 -10.795 -41.515  1.00  0.00     0.143 C 
ATOM     12  H   UNL     1       8.571 -12.057 -43.008  1.00  0.00     0.163 HD
ENDBRANCH   3   8
ENDBRANCH   1   2
BRANCH   1  13
ATOM     13  C   UNL     1       6.519 -15.556 -42.883  1.00  0.00     0.014 A 
ATOM     14  C   UNL     1       5.451 -16.128 -43.584  1.00  0.00     0.016 A 
ATOM     15  C   UNL     1       6.740 -15.883 -41.538  1.00  0.00     0.043 A 
ATOM     16  C   UNL     1       4.592 -17.051 -42.968  1.00  0.00     0.014 A 
ATOM     17  C   UNL     1       5.875 -16.813 -40.949  1.00  0.00     0.067 A 
ATOM     18  C   UNL     1       4.814 -17.404 -41.622  1.00  0.00     0.027 A 
ATOM     19  N   UNL     1       5.840 -17.339 -39.688  1.00  0.00    -0.277 N 
ATOM     20  C   UNL     1       4.206 -18.271 -40.662  1.00  0.00     0.093 A 
ATOM     21  N   UNL     1       4.850 -18.222 -39.486  1.00  0.00    -0.175 NA
ATOM     22  H   UNL     1       6.469 -17.140 -38.918  1.00  0.00     0.190 HD
BRANCH  20  23
ATOM     23  C   UNL     1       3.060 -19.098 -40.915  1.00  0.00     0.033 C 
ATOM     24  C   UNL     1       1.822 -18.636 -41.161  1.00  0.00     0.030 C 
BRANCH  24  25
ATOM     25  C   UNL     1       0.639 -19.460 -41.424  1.00  0.00     0.063 A 
ATOM     26  C   UNL     1       0.617 -20.841 -41.245  1.00  0.00     0.028 A 
ATOM     27  N   UNL     1      -0.458 -18.763 -41.803  1.00  0.00    -0.257 NA
ATOM     28  C   UNL     1      -0.569 -21.534 -41.484  1.00  0.00     0.004 A 
ATOM     29  C   UNL     1      -1.593 -19.459 -42.030  1.00  0.00     0.111 A 
ATOM     30  C   UNL     1      -1.697 -20.832 -41.888  1.00  0.00     0.020 A 
ENDBRANCH  24  25
ENDBRANCH  20  23
ENDBRANCH   1  13
TORSDOF 5
ENDMDL
MODEL 16
REMARK VINA RESULT:    -7.561      2.546      4.243
REMARK INTER + INTRA:         -10.742
REMARK INTER:                  -9.671
REMARK INTRA:                  -1.070
REMARK UNBOUND:                -0.970
REMARK SMILES CNC(=O)c1ccccc1Sc1ccc2c(/C=C/c3ccccn3)n[nH]c2c1
REMARK SMILES IDX 11 1 10 2 5 3 6 4 7 5 9 6 8 7 3 8 2 9 4 10 1 11 12 13 13 14
REMARK SMILES IDX 28 15 14 16 27 17 15 18 26 19 16 20 25 21 17 23 18 24 19 25
REMARK SMILES IDX 20 26 24 27 21 28 23 29 22 30
REMARK H PARENT 2 12 26 22
ROOT
ATOM      1  S   UNL     1       6.270 -17.278 -41.979  1.00  0.00    -0.089 SA
ENDROOT
BRANCH   1   2
ATOM      2  C   UNL     1       6.167 -16.726 -43.681  1.00  0.00     0.025 A 
ATOM      3  C   UNL     1       6.154 -15.375 -44.072  1.00  0.00     0.053 A 
ATOM      4  C   UNL     1       6.135 -15.036 -45.435  1.00  0.00     0.015 A 
ATOM      5  C   UNL     1       6.097 -16.031 -46.411  1.00  0.00     0.001 A 
ATOM      6  C   UNL     1       6.123 -17.714 -44.677  1.00  0.00     0.016 A 
ATOM      7  C   UNL     1       6.085 -17.371 -46.030  1.00  0.00     0.001 A 
BRANCH   3   8
ATOM      8  C   UNL     1       6.192 -14.239 -43.119  1.00  0.00     0.252 C 
ATOM      9  N   UNL     1       7.442 -13.781 -42.768  1.00  0.00    -0.355 N 
ATOM     10  O   UNL     1       5.144 -13.784 -42.677  1.00  0.00    -0.269 OA
ATOM     11  C   UNL     1       7.606 -12.617 -41.936  1.00  0.00     0.143 C 
ATOM     12  H   UNL     1       8.245 -14.115 -43.288  1.00  0.00     0.163 HD
ENDBRANCH   3   8
ENDBRANCH   1   2
BRANCH   1  13
ATOM     13  C   UNL     1       4.608 -17.894 -41.739  1.00  0.00     0.014 A 
ATOM     14  C   UNL     1       3.527 -17.021 -41.899  1.00  0.00     0.016 A 
ATOM     15  C   UNL     1       4.392 -19.230 -41.374  1.00  0.00     0.043 A 
ATOM     16  C   UNL     1       2.208 -17.461 -41.718  1.00  0.00     0.014 A 
ATOM     17  C   UNL     1       3.067 -19.648 -41.208  1.00  0.00     0.067 A 
ATOM     18  C   UNL     1       1.974 -18.806 -41.370  1.00  0.00     0.027 A 
ATOM     19  N   UNL     1       2.539 -20.865 -40.879  1.00  0.00    -0.277 N 
ATOM     20  C   UNL     1       0.834 -19.629 -41.109  1.00  0.00     0.093 A 
ATOM     21  N   UNL     1       1.199 -20.886 -40.816  1.00  0.00    -0.175 NA
ATOM     22  H   UNL     1       3.041 -21.725 -40.689  1.00  0.00     0.190 HD
BRANCH  20  23
ATOM     23  C   UNL     1      -0.529 -19.181 -41.161  1.00  0.00     0.033 C 
ATOM     24  C   UNL     1      -1.218 -18.957 -42.294  1.00  0.00     0.030 C 
BRANCH  24  25
ATOM     25  C   UNL     1      -2.609 -18.502 -42.372  1.00  0.00     0.063 A 
ATOM     26  C   UNL     1      -3.618 -18.989 -41.544  1.00  0.00     0.028 A 
ATOM     27  N   UNL     1      -2.830 -17.522 -43.279  1.00  0.00    -0.257 NA
ATOM     28  C   UNL     1      -4.904 -18.466 -41.666  1.00  0.00     0.004 A 
ATOM     29  C   UNL     1      -4.086 -17.034 -43.378  1.00  0.00     0.111 A 
ATOM     30  C   UNL     1      -5.146 -17.470 -42.604  1.00  0.00     0.020 A 
ENDBRANCH  24  25
ENDBRANCH  20  23
ENDBRANCH   1  13
TORSDOF 5
ENDMDL
MODEL 17
REMARK VINA RESULT:    -7.541      6.851     10.537
REMARK INTER + INTRA:         -10.716
REMARK INTER:                 -10.661
REMARK INTRA:                  -0.054
REMARK UNBOUND:                -0.970
REMARK SMILES CNC(=O)c1ccccc1Sc1ccc2c(/C=C/c3ccccn3)n[nH]c2c1
REMARK SMILES IDX 11 1 10 2 5 3 6 4 7 5 9 6 8 7 3 8 2 9 4 10 1 11 12 13 13 14
REMARK SMILES IDX 28 15 14 16 27 17 15 18 26 19 16 20 25 21 17 23 18 24 19 25
REMARK SMILES IDX 20 26 24 27 21 28 23 29 22 30
REMARK H PARENT 2 12 26 22
ROOT
ATOM      1  S   UNL     1       0.844 -16.902 -42.615  1.00  0.00    -0.089 SA
ENDROOT
BRANCH   1   2
ATOM      2  C   UNL     1      -0.830 -17.541 -42.648  1.00  0.00     0.025 A 
ATOM      3  C   UNL     1      -1.236 -18.721 -42.001  1.00  0.00     0.053 A 
ATOM      4  C   UNL     1      -2.584 -19.113 -42.029  1.00  0.00     0.015 A 
ATOM      5  C   UNL     1      -3.526 -18.355 -42.724  1.00  0.00     0.001 A 
ATOM      6  C   UNL     1      -1.791 -16.793 -43.347  1.00  0.00     0.016 A 
ATOM      7  C   UNL     1      -3.127 -17.197 -43.387  1.00  0.00     0.001 A 
BRANCH   3   8
ATOM      8  C   UNL     1      -0.319 -19.601 -41.235  1.00  0.00     0.252 C 
ATOM      9  N   UNL     1       0.638 -18.968 -40.474  1.00  0.00    -0.355 N 
ATOM     10  O   UNL     1      -0.429 -20.819 -41.328  1.00  0.00    -0.269 OA
ATOM     11  C   UNL     1       1.514 -19.710 -39.605  1.00  0.00     0.143 C 
ATOM     12  H   UNL     1       0.566 -17.966 -40.340  1.00  0.00     0.163 HD
ENDBRANCH   3   8
ENDBRANCH   1   2
BRANCH   1  13
ATOM     13  C   UNL     1       0.660 -15.460 -43.657  1.00  0.00     0.014 A 
ATOM     14  C   UNL     1       0.459 -14.210 -43.062  1.00  0.00     0.016 A 
ATOM     15  C   UNL     1       0.694 -15.583 -45.053  1.00  0.00     0.043 A 
ATOM     16  C   UNL     1       0.308 -13.053 -43.841  1.00  0.00     0.014 A 
ATOM     17  C   UNL     1       0.550 -14.414 -45.808  1.00  0.00     0.067 A 
ATOM     18  C   UNL     1       0.360 -13.158 -45.245  1.00  0.00     0.027 A 
ATOM     19  N   UNL     1       0.557 -14.206 -47.159  1.00  0.00    -0.277 N 
ATOM     20  C   UNL     1       0.262 -12.267 -46.359  1.00  0.00     0.093 A 
ATOM     21  N   UNL     1       0.390 -12.924 -47.520  1.00  0.00    -0.175 NA
ATOM     22  H   UNL     1       0.676 -14.898 -47.890  1.00  0.00     0.190 HD
BRANCH  20  23
ATOM     23  C   UNL     1       0.063 -10.848 -46.257  1.00  0.00     0.033 C 
ATOM     24  C   UNL     1      -1.066 -10.264 -45.820  1.00  0.00     0.030 C 
BRANCH  24  25
ATOM     25  C   UNL     1      -1.291  -8.820 -45.705  1.00  0.00     0.063 A 
ATOM     26  C   UNL     1      -0.304  -7.924 -45.301  1.00  0.00     0.028 A 
ATOM     27  N   UNL     1      -2.526  -8.413 -46.080  1.00  0.00    -0.257 NA
ATOM     28  C   UNL     1      -0.603  -6.564 -45.261  1.00  0.00     0.004 A 
ATOM     29  C   UNL     1      -2.790  -7.088 -46.030  1.00  0.00     0.111 A 
ATOM     30  C   UNL     1      -1.871  -6.134 -45.629  1.00  0.00     0.020 A 
ENDBRANCH  24  25
ENDBRANCH  20  23
ENDBRANCH   1  13
TORSDOF 5
ENDMDL
MODEL 18
REMARK VINA RESULT:    -7.505      2.940      4.105
REMARK INTER + INTRA:         -10.669
REMARK INTER:                  -9.598
REMARK INTRA:                  -1.071
REMARK UNBOUND:                -0.970
REMARK SMILES CNC(=O)c1ccccc1Sc1ccc2c(/C=C/c3ccccn3)n[nH]c2c1
REMARK SMILES IDX 11 1 10 2 5 3 6 4 7 5 9 6 8 7 3 8 2 9 4 10 1 11 12 13 13 14
REMARK SMILES IDX 28 15 14 16 27 17 15 18 26 19 16 20 25 21 17 23 18 24 19 25
REMARK SMILES IDX 20 26 24 27 21 28 23 29 22 30
REMARK H PARENT 2 12 26 22
ROOT
ATOM      1  S   UNL     1       6.788 -14.377 -44.587  1.00  0.00    -0.089 SA
ENDROOT
BRANCH   1   2
ATOM      2  C   UNL     1       7.192 -13.281 -43.228  1.00  0.00     0.025 A 
ATOM      3  C   UNL     1       7.519 -13.720 -41.932  1.00  0.00     0.053 A 
ATOM      4  C   UNL     1       7.884 -12.791 -40.945  1.00  0.00     0.015 A 
ATOM      5  C   UNL     1       7.895 -11.426 -41.228  1.00  0.00     0.001 A 
ATOM      6  C   UNL     1       7.204 -11.902 -43.493  1.00  0.00     0.016 A 
ATOM      7  C   UNL     1       7.550 -10.982 -42.502  1.00  0.00     0.001 A 
BRANCH   3   8
ATOM      8  C   UNL     1       7.538 -15.146 -41.524  1.00  0.00     0.252 C 
ATOM      9  N   UNL     1       6.493 -15.568 -40.734  1.00  0.00    -0.355 N 
ATOM     10  O   UNL     1       8.470 -15.864 -41.872  1.00  0.00    -0.269 OA
ATOM     11  C   UNL     1       6.346 -16.951 -40.363  1.00  0.00     0.143 C 
ATOM     12  H   UNL     1       5.697 -14.951 -40.614  1.00  0.00     0.163 HD
ENDBRANCH   3   8
ENDBRANCH   1   2
BRANCH   1  13
ATOM     13  C   UNL     1       5.010 -14.464 -44.414  1.00  0.00     0.014 A 
ATOM     14  C   UNL     1       4.450 -15.496 -43.654  1.00  0.00     0.016 A 
ATOM     15  C   UNL     1       4.188 -13.524 -45.049  1.00  0.00     0.043 A 
ATOM     16  C   UNL     1       3.060 -15.605 -43.494  1.00  0.00     0.014 A 
ATOM     17  C   UNL     1       2.806 -13.647 -44.867  1.00  0.00     0.067 A 
ATOM     18  C   UNL     1       2.221 -14.655 -44.110  1.00  0.00     0.027 A 
ATOM     19  N   UNL     1       1.763 -12.894 -45.330  1.00  0.00    -0.277 N 
ATOM     20  C   UNL     1       0.815 -14.408 -44.192  1.00  0.00     0.093 A 
ATOM     21  N   UNL     1       0.555 -13.324 -44.937  1.00  0.00    -0.175 NA
ATOM     22  H   UNL     1       1.811 -12.068 -45.916  1.00  0.00     0.190 HD
BRANCH  20  23
ATOM     23  C   UNL     1      -0.195 -15.205 -43.554  1.00  0.00     0.033 C 
ATOM     24  C   UNL     1      -0.597 -16.415 -43.980  1.00  0.00     0.030 C 
BRANCH  24  25
ATOM     25  C   UNL     1      -1.622 -17.247 -43.344  1.00  0.00     0.063 A 
ATOM     26  C   UNL     1      -1.324 -18.351 -42.550  1.00  0.00     0.028 A 
ATOM     27  N   UNL     1      -2.892 -16.822 -43.542  1.00  0.00    -0.257 NA
ATOM     28  C   UNL     1      -2.368 -19.057 -41.955  1.00  0.00     0.004 A 
ATOM     29  C   UNL     1      -3.885 -17.526 -42.955  1.00  0.00     0.111 A 
ATOM     30  C   UNL     1      -3.676 -18.640 -42.163  1.00  0.00     0.020 A 
ENDBRANCH  24  25
ENDBRANCH  20  23
ENDBRANCH   1  13
TORSDOF 5
ENDMDL
MODEL 19
REMARK VINA RESULT:    -7.342      7.946      9.371
REMARK INTER + INTRA:         -10.459
REMARK INTER:                  -9.823
REMARK INTRA:                  -0.636
REMARK UNBOUND:                -0.970
REMARK SMILES CNC(=O)c1ccccc1Sc1ccc2c(/C=C/c3ccccn3)n[nH]c2c1
REMARK SMILES IDX 11 1 10 2 5 3 6 4 7 5 9 6 8 7 3 8 2 9 4 10 1 11 12 13 13 14
REMARK SMILES IDX 28 15 14 16 27 17 15 18 26 19 16 20 25 21 17 23 18 24 19 25
REMARK SMILES IDX 20 26 24 27 21 28 23 29 22 30
REMARK H PARENT 2 12 26 22
ROOT
ATOM      1  S   UNL     1       3.286 -13.344 -45.081  1.00  0.00    -0.089 SA
ENDROOT
BRANCH   1   2
ATOM      2  C   UNL     1       4.384 -11.941 -45.273  1.00  0.00     0.025 A 
ATOM      3  C   UNL     1       5.780 -12.006 -45.118  1.00  0.00     0.053 A 
ATOM      4  C   UNL     1       6.569 -10.867 -45.349  1.00  0.00     0.015 A 
ATOM      5  C   UNL     1       5.976  -9.656 -45.703  1.00  0.00     0.001 A 
ATOM      6  C   UNL     1       3.803 -10.712 -45.624  1.00  0.00     0.016 A 
ATOM      7  C   UNL     1       4.591  -9.578 -45.835  1.00  0.00     0.001 A 
BRANCH   3   8
ATOM      8  C   UNL     1       6.514 -13.240 -44.745  1.00  0.00     0.252 C 
ATOM      9  N   UNL     1       6.765 -13.418 -43.403  1.00  0.00    -0.355 N 
ATOM     10  O   UNL     1       6.879 -14.016 -45.621  1.00  0.00    -0.269 OA
ATOM     11  C   UNL     1       7.372 -14.626 -42.909  1.00  0.00     0.143 C 
ATOM     12  H   UNL     1       6.304 -12.806 -42.739  1.00  0.00     0.163 HD
ENDBRANCH   3   8
ENDBRANCH   1   2
BRANCH   1  13
ATOM     13  C   UNL     1       1.698 -12.528 -45.188  1.00  0.00     0.014 A 
ATOM     14  C   UNL     1       1.179 -11.896 -44.053  1.00  0.00     0.016 A 
ATOM     15  C   UNL     1       0.973 -12.539 -46.387  1.00  0.00     0.043 A 
ATOM     16  C   UNL     1      -0.064 -11.246 -44.091  1.00  0.00     0.014 A 
ATOM     17  C   UNL     1      -0.260 -11.876 -46.402  1.00  0.00     0.067 A 
ATOM     18  C   UNL     1      -0.796 -11.232 -45.294  1.00  0.00     0.027 A 
ATOM     19  N   UNL     1      -1.176 -11.697 -47.401  1.00  0.00    -0.277 N 
ATOM     20  C   UNL     1      -2.044 -10.701 -45.746  1.00  0.00     0.093 A 
ATOM     21  N   UNL     1      -2.257 -10.991 -47.037  1.00  0.00    -0.175 NA
ATOM     22  H   UNL     1      -1.119 -12.028 -48.358  1.00  0.00     0.190 HD
BRANCH  20  23
ATOM     23  C   UNL     1      -2.955  -9.946 -44.932  1.00  0.00     0.033 C 
ATOM     24  C   UNL     1      -3.358  -8.691 -45.197  1.00  0.00     0.030 C 
BRANCH  24  25
ATOM     25  C   UNL     1      -4.288  -7.903 -44.384  1.00  0.00     0.063 A 
ATOM     26  C   UNL     1      -5.060  -8.451 -43.363  1.00  0.00     0.028 A 
ATOM     27  N   UNL     1      -4.297  -6.579 -44.666  1.00  0.00    -0.257 NA
ATOM     28  C   UNL     1      -5.887  -7.612 -42.617  1.00  0.00     0.004 A 
ATOM     29  C   UNL     1      -5.109  -5.789 -43.929  1.00  0.00     0.111 A 
ATOM     30  C   UNL     1      -5.916  -6.254 -42.906  1.00  0.00     0.020 A 
ENDBRANCH  24  25
ENDBRANCH  20  23
ENDBRANCH   1  13
TORSDOF 5
ENDMDL
MODEL 20
REMARK VINA RESULT:    -7.298      2.015      2.789
REMARK INTER + INTRA:         -10.402
REMARK INTER:                  -9.425
REMARK INTRA:                  -0.977
REMARK UNBOUND:                -0.970
REMARK SMILES CNC(=O)c1ccccc1Sc1ccc2c(/C=C/c3ccccn3)n[nH]c2c1
REMARK SMILES IDX 11 1 10 2 5 3 6 4 7 5 9 6 8 7 3 8 2 9 4 10 1 11 12 13 13 14
REMARK SMILES IDX 28 15 14 16 27 17 15 18 26 19 16 20 25 21 17 23 18 24 19 25
REMARK SMILES IDX 20 26 24 27 21 28 23 29 22 30
REMARK H PARENT 2 12 26 22
ROOT
ATOM      1  S   UNL     1       7.955 -15.845 -43.501  1.00  0.00    -0.089 SA
ENDROOT
BRANCH   1   2
ATOM      2  C   UNL     1       7.945 -14.252 -42.680  1.00  0.00     0.025 A 
ATOM      3  C   UNL     1       7.306 -13.107 -43.189  1.00  0.00     0.053 A 
ATOM      4  C   UNL     1       7.297 -11.916 -42.445  1.00  0.00     0.015 A 
ATOM      5  C   UNL     1       7.946 -11.847 -41.213  1.00  0.00     0.001 A 
ATOM      6  C   UNL     1       8.597 -14.163 -41.440  1.00  0.00     0.016 A 
ATOM      7  C   UNL     1       8.600 -12.970 -40.714  1.00  0.00     0.001 A 
BRANCH   3   8
ATOM      8  C   UNL     1       6.588 -13.070 -44.487  1.00  0.00     0.252 C 
ATOM      9  N   UNL     1       5.237 -13.331 -44.443  1.00  0.00    -0.355 N 
ATOM     10  O   UNL     1       7.211 -12.840 -45.518  1.00  0.00    -0.269 OA
ATOM     11  C   UNL     1       4.415 -13.219 -45.619  1.00  0.00     0.143 C 
ATOM     12  H   UNL     1       4.780 -13.366 -43.539  1.00  0.00     0.163 HD
ENDBRANCH   3   8
ENDBRANCH   1   2
BRANCH   1  13
ATOM     13  C   UNL     1       6.519 -16.604 -42.752  1.00  0.00     0.014 A 
ATOM     14  C   UNL     1       5.280 -16.498 -43.394  1.00  0.00     0.016 A 
ATOM     15  C   UNL     1       6.628 -17.277 -41.528  1.00  0.00     0.043 A 
ATOM     16  C   UNL     1       4.127 -17.076 -42.841  1.00  0.00     0.014 A 
ATOM     17  C   UNL     1       5.466 -17.852 -41.002  1.00  0.00     0.067 A 
ATOM     18  C   UNL     1       4.225 -17.773 -41.620  1.00  0.00     0.027 A 
ATOM     19  N   UNL     1       5.254 -18.573 -39.860  1.00  0.00    -0.277 N 
ATOM     20  C   UNL     1       3.336 -18.483 -40.755  1.00  0.00     0.093 A 
ATOM     21  N   UNL     1       3.984 -18.969 -39.686  1.00  0.00    -0.175 NA
ATOM     22  H   UNL     1       5.938 -18.834 -39.158  1.00  0.00     0.190 HD
BRANCH  20  23
ATOM     23  C   UNL     1       1.932 -18.666 -40.994  1.00  0.00     0.033 C 
ATOM     24  C   UNL     1       1.334 -19.857 -41.166  1.00  0.00     0.030 C 
BRANCH  24  25
ATOM     25  C   UNL     1      -0.096 -20.068 -41.408  1.00  0.00     0.063 A 
ATOM     26  C   UNL     1      -0.722 -21.302 -41.248  1.00  0.00     0.028 A 
ATOM     27  N   UNL     1      -0.779 -18.950 -41.747  1.00  0.00    -0.257 NA
ATOM     28  C   UNL     1      -2.096 -21.394 -41.463  1.00  0.00     0.004 A 
ATOM     29  C   UNL     1      -2.109 -19.068 -41.952  1.00  0.00     0.111 A 
ATOM     30  C   UNL     1      -2.806 -20.257 -41.826  1.00  0.00     0.020 A 
ENDBRANCH  24  25
ENDBRANCH  20  23
ENDBRANCH   1  13
TORSDOF 5
ENDMDL
