MODEL 1
REMARK VINA RESULT:    -9.558      0.000      0.000
REMARK INTER + INTRA:         -13.323
REMARK INTER:                 -12.911
REMARK INTRA:                  -0.412
REMARK UNBOUND:                -0.412
REMARK SMILES COc1cc2ncnc(Nc3cccc(Cl)c3F)c2cc1OC(=O)N1CCN(C)C[C@H]1C
REMARK SMILES IDX 3 1 4 2 5 3 6 4 7 5 8 6 9 7 19 8 20 9 21 10 2 11 1 12 22 13
REMARK SMILES IDX 23 14 24 15 25 16 26 17 31 18 27 19 30 20 28 21 32 22 29 23
REMARK SMILES IDX 10 24 11 26 12 27 17 28 13 29 15 30 14 31 18 32 16 33
REMARK H PARENT 10 25
ROOT
ATOM      1  C   UNL     1      -3.723 -17.987 -42.826  1.00  0.00     0.163 A 
ATOM      2  C   UNL     1      -4.144 -19.178 -42.231  1.00  0.00     0.079 A 
ATOM      3  C   UNL     1      -3.255 -20.210 -41.933  1.00  0.00     0.080 A 
ATOM      4  N   UNL     1      -3.743 -21.318 -41.371  1.00  0.00    -0.236 NA
ATOM      5  C   UNL     1      -2.869 -22.294 -41.105  1.00  0.00     0.224 A 
ATOM      6  N   UNL     1      -1.554 -22.264 -41.341  1.00  0.00    -0.219 NA
ATOM      7  C   UNL     1      -1.063 -21.140 -41.893  1.00  0.00     0.141 A 
ATOM      8  C   UNL     1      -1.894 -20.054 -42.236  1.00  0.00     0.047 A 
ATOM      9  C   UNL     1      -1.455 -18.862 -42.855  1.00  0.00     0.065 A 
ATOM     10  C   UNL     1      -2.368 -17.845 -43.124  1.00  0.00     0.175 A 
ENDROOT
BRANCH   1  11
ATOM     11  O   UNL     1      -4.531 -16.937 -43.166  1.00  0.00    -0.493 OA
ATOM     12  C   UNL     1      -5.866 -16.961 -42.676  1.00  0.00     0.278 C 
ENDBRANCH   1  11
BRANCH  10  13
ATOM     13  O   UNL     1      -1.910 -16.686 -43.754  1.00  0.00    -0.406 OA
BRANCH  13  14
ATOM     14  C   UNL     1      -0.639 -16.307 -43.333  1.00  0.00     0.415 C 
ATOM     15  O   UNL     1      -0.114 -16.685 -42.289  1.00  0.00    -0.224 OA
BRANCH  14  16
ATOM     16  N   UNL     1      -0.011 -15.471 -44.243  1.00  0.00    -0.303 N 
ATOM     17  C   UNL     1       0.936 -14.471 -43.768  1.00  0.00     0.139 C 
ATOM     18  C   UNL     1      -0.424 -15.352 -45.652  1.00  0.00     0.099 C 
ATOM     19  C   UNL     1       0.455 -13.038 -44.082  1.00  0.00     0.106 C 
ATOM     20  C   UNL     1       0.045 -14.010 -46.287  1.00  0.00     0.109 C 
ATOM     21  N   UNL     1      -0.217 -12.874 -45.391  1.00  0.00    -0.303 NA
ATOM     22  C   UNL     1       0.103 -16.524 -46.483  1.00  0.00     0.032 C 
ATOM     23  C   UNL     1       0.116 -11.598 -46.011  1.00  0.00     0.105 C 
ENDBRANCH  14  16
ENDBRANCH  13  14
ENDBRANCH  10  13
BRANCH   7  24
ATOM     24  N   UNL     1       0.332 -21.039 -42.135  1.00  0.00    -0.337 N 
ATOM     25  H   UNL     1       0.497 -20.967 -43.139  1.00  0.00     0.168 HD
BRANCH  24  26
ATOM     26  C   UNL     1       1.294 -20.281 -41.425  1.00  0.00     0.077 A 
ATOM     27  C   UNL     1       0.972 -19.496 -40.311  1.00  0.00     0.029 A 
ATOM     28  C   UNL     1       2.650 -20.401 -41.772  1.00  0.00     0.165 A 
ATOM     29  C   UNL     1       1.965 -18.812 -39.601  1.00  0.00     0.004 A 
ATOM     30  C   UNL     1       3.644 -19.722 -41.068  1.00  0.00     0.078 A 
ATOM     31  C   UNL     1       3.302 -18.921 -39.981  1.00  0.00     0.024 A 
ATOM     32  F   UNL     1       2.976 -21.184 -42.817  1.00  0.00    -0.203 F 
ATOM     33  Cl  UNL     1       5.298 -19.869 -41.524  1.00  0.00    -0.081 Cl
ENDBRANCH  24  26
ENDBRANCH   7  24
TORSDOF 6
ENDMDL
MODEL 2
REMARK VINA RESULT:    -9.301      6.723     11.379
REMARK INTER + INTRA:         -12.975
REMARK INTER:                 -11.416
REMARK INTRA:                  -1.559
REMARK UNBOUND:                -0.412
REMARK SMILES COc1cc2ncnc(Nc3cccc(Cl)c3F)c2cc1OC(=O)N1CCN(C)C[C@H]1C
REMARK SMILES IDX 3 1 4 2 5 3 6 4 7 5 8 6 9 7 19 8 20 9 21 10 2 11 1 12 22 13
REMARK SMILES IDX 23 14 24 15 25 16 26 17 31 18 27 19 30 20 28 21 32 22 29 23
REMARK SMILES IDX 10 24 11 26 12 27 17 28 13 29 15 30 14 31 18 32 16 33
REMARK H PARENT 10 25
ROOT
ATOM      1  C   UNL     1       2.625  -8.436 -44.259  1.00  0.00     0.163 A 
ATOM      2  C   UNL     1       2.304  -7.096 -44.486  1.00  0.00     0.079 A 
ATOM      3  C   UNL     1       1.009  -6.690 -44.805  1.00  0.00     0.080 A 
ATOM      4  N   UNL     1       0.791  -5.390 -45.013  1.00  0.00    -0.236 NA
ATOM      5  C   UNL     1      -0.459  -5.031 -45.326  1.00  0.00     0.224 A 
ATOM      6  N   UNL     1      -1.510  -5.848 -45.443  1.00  0.00    -0.219 NA
ATOM      7  C   UNL     1      -1.290  -7.155 -45.217  1.00  0.00     0.141 A 
ATOM      8  C   UNL     1      -0.009  -7.651 -44.901  1.00  0.00     0.047 A 
ATOM      9  C   UNL     1       0.304  -9.013 -44.692  1.00  0.00     0.065 A 
ATOM     10  C   UNL     1       1.605  -9.382 -44.359  1.00  0.00     0.175 A 
ENDROOT
BRANCH   1  11
ATOM     11  O   UNL     1       3.870  -8.917 -43.960  1.00  0.00    -0.493 OA
ATOM     12  C   UNL     1       4.919  -8.612 -44.869  1.00  0.00     0.278 C 
ENDBRANCH   1  11
BRANCH  10  13
ATOM     13  O   UNL     1       1.889 -10.737 -44.177  1.00  0.00    -0.406 OA
BRANCH  13  14
ATOM     14  C   UNL     1       2.023 -11.428 -45.378  1.00  0.00     0.415 C 
ATOM     15  O   UNL     1       2.886 -11.194 -46.219  1.00  0.00    -0.224 OA
BRANCH  14  16
ATOM     16  N   UNL     1       1.084 -12.439 -45.510  1.00  0.00    -0.303 N 
ATOM     17  C   UNL     1       1.061 -13.531 -44.547  1.00  0.00     0.139 C 
ATOM     18  C   UNL     1       0.255 -12.621 -46.714  1.00  0.00     0.099 C 
ATOM     19  C   UNL     1       1.358 -14.888 -45.220  1.00  0.00     0.106 C 
ATOM     20  C   UNL     1      -0.285 -14.076 -46.836  1.00  0.00     0.109 C 
ATOM     21  N   UNL     1       0.771 -15.063 -46.567  1.00  0.00    -0.303 NA
ATOM     22  C   UNL     1      -0.917 -11.636 -46.732  1.00  0.00     0.032 C 
ATOM     23  C   UNL     1       0.312 -16.430 -46.783  1.00  0.00     0.105 C 
ENDBRANCH  14  16
ENDBRANCH  13  14
ENDBRANCH  10  13
BRANCH   7  24
ATOM     24  N   UNL     1      -2.378  -8.064 -45.294  1.00  0.00    -0.337 N 
ATOM     25  H   UNL     1      -2.062  -8.934 -45.723  1.00  0.00     0.168 HD
BRANCH  24  26
ATOM     26  C   UNL     1      -3.369  -8.332 -44.319  1.00  0.00     0.077 A 
ATOM     27  C   UNL     1      -3.889  -7.344 -43.473  1.00  0.00     0.029 A 
ATOM     28  C   UNL     1      -3.946  -9.611 -44.265  1.00  0.00     0.165 A 
ATOM     29  C   UNL     1      -4.914  -7.639 -42.567  1.00  0.00     0.004 A 
ATOM     30  C   UNL     1      -4.969  -9.911 -43.365  1.00  0.00     0.078 A 
ATOM     31  C   UNL     1      -5.452  -8.925 -42.508  1.00  0.00     0.024 A 
ATOM     32  F   UNL     1      -3.483 -10.558 -45.102  1.00  0.00    -0.203 F 
ATOM     33  Cl  UNL     1      -5.648 -11.492 -43.304  1.00  0.00    -0.081 Cl
ENDBRANCH  24  26
ENDBRANCH   7  24
TORSDOF 6
ENDMDL
MODEL 3
REMARK VINA RESULT:    -9.170      1.987      2.640
REMARK INTER + INTRA:         -12.799
REMARK INTER:                 -11.172
REMARK INTRA:                  -1.628
REMARK UNBOUND:                -0.412
REMARK SMILES COc1cc2ncnc(Nc3cccc(Cl)c3F)c2cc1OC(=O)N1CCN(C)C[C@H]1C
REMARK SMILES IDX 3 1 4 2 5 3 6 4 7 5 8 6 9 7 19 8 20 9 21 10 2 11 1 12 22 13
REMARK SMILES IDX 23 14 24 15 25 16 26 17 31 18 27 19 30 20 28 21 32 22 29 23
REMARK SMILES IDX 10 24 11 26 12 27 17 28 13 29 15 30 14 31 18 32 16 33
REMARK H PARENT 10 25
ROOT
ATOM      1  C   UNL     1      -2.254 -17.490 -43.170  1.00  0.00     0.163 A 
ATOM      2  C   UNL     1      -2.418 -18.813 -42.753  1.00  0.00     0.079 A 
ATOM      3  C   UNL     1      -1.397 -19.521 -42.122  1.00  0.00     0.080 A 
ATOM      4  N   UNL     1      -1.636 -20.784 -41.762  1.00  0.00    -0.236 NA
ATOM      5  C   UNL     1      -0.635 -21.441 -41.167  1.00  0.00     0.224 A 
ATOM      6  N   UNL     1       0.578 -20.953 -40.892  1.00  0.00    -0.219 NA
ATOM      7  C   UNL     1       0.811 -19.675 -41.242  1.00  0.00     0.141 A 
ATOM      8  C   UNL     1      -0.163 -18.892 -41.893  1.00  0.00     0.047 A 
ATOM      9  C   UNL     1       0.025 -17.560 -42.326  1.00  0.00     0.065 A 
ATOM     10  C   UNL     1      -1.023 -16.877 -42.939  1.00  0.00     0.175 A 
ENDROOT
BRANCH   1  11
ATOM     11  O   UNL     1      -3.197 -16.734 -43.810  1.00  0.00    -0.493 OA
ATOM     12  C   UNL     1      -4.559 -17.084 -43.602  1.00  0.00     0.278 C 
ENDBRANCH   1  11
BRANCH  10  13
ATOM     13  O   UNL     1      -0.803 -15.568 -43.374  1.00  0.00    -0.406 OA
BRANCH  13  14
ATOM     14  C   UNL     1       0.075 -15.496 -44.451  1.00  0.00     0.415 C 
ATOM     15  O   UNL     1      -0.006 -16.195 -45.458  1.00  0.00    -0.224 OA
BRANCH  14  16
ATOM     16  N   UNL     1       1.044 -14.520 -44.277  1.00  0.00    -0.303 N 
ATOM     17  C   UNL     1       0.744 -13.344 -43.472  1.00  0.00     0.139 C 
ATOM     18  C   UNL     1       2.289 -14.465 -45.063  1.00  0.00     0.099 C 
ATOM     19  C   UNL     1       0.810 -12.049 -44.310  1.00  0.00     0.106 C 
ATOM     20  C   UNL     1       2.911 -13.038 -45.072  1.00  0.00     0.109 C 
ATOM     21  N   UNL     1       1.890 -12.011 -45.321  1.00  0.00    -0.303 NA
ATOM     22  C   UNL     1       3.317 -15.470 -44.537  1.00  0.00     0.032 C 
ATOM     23  C   UNL     1       2.469 -10.679 -45.442  1.00  0.00     0.105 C 
ENDBRANCH  14  16
ENDBRANCH  13  14
ENDBRANCH  10  13
BRANCH   7  24
ATOM     24  N   UNL     1       2.071 -19.094 -40.943  1.00  0.00    -0.337 N 
ATOM     25  H   UNL     1       2.196 -19.059 -39.931  1.00  0.00     0.168 HD
BRANCH  24  26
ATOM     26  C   UNL     1       3.315 -19.317 -41.582  1.00  0.00     0.077 A 
ATOM     27  C   UNL     1       3.740 -20.587 -41.995  1.00  0.00     0.029 A 
ATOM     28  C   UNL     1       4.115 -18.215 -41.924  1.00  0.00     0.165 A 
ATOM     29  C   UNL     1       4.949 -20.753 -42.679  1.00  0.00     0.004 A 
ATOM     30  C   UNL     1       5.320 -18.374 -42.607  1.00  0.00     0.078 A 
ATOM     31  C   UNL     1       5.743 -19.647 -42.982  1.00  0.00     0.024 A 
ATOM     32  F   UNL     1       3.697 -16.986 -41.568  1.00  0.00    -0.203 F 
ATOM     33  Cl  UNL     1       6.294 -17.009 -42.999  1.00  0.00    -0.081 Cl
ENDBRANCH  24  26
ENDBRANCH   7  24
TORSDOF 6
ENDMDL
MODEL 4
REMARK VINA RESULT:    -9.070      6.673     11.481
REMARK INTER + INTRA:         -12.663
REMARK INTER:                 -11.063
REMARK INTRA:                  -1.600
REMARK UNBOUND:                -0.412
REMARK SMILES COc1cc2ncnc(Nc3cccc(Cl)c3F)c2cc1OC(=O)N1CCN(C)C[C@H]1C
REMARK SMILES IDX 3 1 4 2 5 3 6 4 7 5 8 6 9 7 19 8 20 9 21 10 2 11 1 12 22 13
REMARK SMILES IDX 23 14 24 15 25 16 26 17 31 18 27 19 30 20 28 21 32 22 29 23
REMARK SMILES IDX 10 24 11 26 12 27 17 28 13 29 15 30 14 31 18 32 16 33
REMARK H PARENT 10 25
ROOT
ATOM      1  C   UNL     1       2.725  -8.715 -44.697  1.00  0.00     0.163 A 
ATOM      2  C   UNL     1       2.430  -7.356 -44.571  1.00  0.00     0.079 A 
ATOM      3  C   UNL     1       1.164  -6.846 -44.856  1.00  0.00     0.080 A 
ATOM      4  N   UNL     1       0.968  -5.533 -44.714  1.00  0.00    -0.236 NA
ATOM      5  C   UNL     1      -0.253  -5.071 -45.004  1.00  0.00     0.224 A 
ATOM      6  N   UNL     1      -1.296  -5.797 -45.414  1.00  0.00    -0.219 NA
ATOM      7  C   UNL     1      -1.101  -7.123 -45.539  1.00  0.00     0.141 A 
ATOM      8  C   UNL     1       0.150  -7.718 -45.282  1.00  0.00     0.047 A 
ATOM      9  C   UNL     1       0.440  -9.093 -45.433  1.00  0.00     0.065 A 
ATOM     10  C   UNL     1       1.710  -9.571 -45.124  1.00  0.00     0.175 A 
ENDROOT
BRANCH   1  11
ATOM     11  O   UNL     1       3.942  -9.291 -44.455  1.00  0.00    -0.493 OA
ATOM     12  C   UNL     1       5.015  -8.925 -45.313  1.00  0.00     0.278 C 
ENDBRANCH   1  11
BRANCH  10  13
ATOM     13  O   UNL     1       1.974 -10.931 -45.301  1.00  0.00    -0.406 OA
BRANCH  13  14
ATOM     14  C   UNL     1       1.256 -11.741 -44.426  1.00  0.00     0.415 C 
ATOM     15  O   UNL     1       1.176 -11.551 -43.215  1.00  0.00    -0.224 OA
BRANCH  14  16
ATOM     16  N   UNL     1       0.609 -12.778 -45.079  1.00  0.00    -0.303 N 
ATOM     17  C   UNL     1       0.492 -14.076 -44.430  1.00  0.00     0.139 C 
ATOM     18  C   UNL     1       0.244 -12.733 -46.506  1.00  0.00     0.099 C 
ATOM     19  C   UNL     1       1.229 -15.177 -45.222  1.00  0.00     0.106 C 
ATOM     20  C   UNL     1       0.048 -14.157 -47.103  1.00  0.00     0.109 C 
ATOM     21  N   UNL     1       1.133 -15.063 -46.694  1.00  0.00    -0.303 NA
ATOM     22  C   UNL     1      -1.026 -11.907 -46.725  1.00  0.00     0.032 C 
ATOM     23  C   UNL     1       1.026 -16.369 -47.331  1.00  0.00     0.105 C 
ENDBRANCH  14  16
ENDBRANCH  13  14
ENDBRANCH  10  13
BRANCH   7  24
ATOM     24  N   UNL     1      -2.185  -7.948 -45.939  1.00  0.00    -0.337 N 
ATOM     25  H   UNL     1      -1.827  -8.855 -46.238  1.00  0.00     0.168 HD
BRANCH  24  26
ATOM     26  C   UNL     1      -3.447  -8.101 -45.316  1.00  0.00     0.077 A 
ATOM     27  C   UNL     1      -4.563  -7.328 -45.660  1.00  0.00     0.029 A 
ATOM     28  C   UNL     1      -3.632  -9.145 -44.395  1.00  0.00     0.165 A 
ATOM     29  C   UNL     1      -5.808  -7.556 -45.064  1.00  0.00     0.004 A 
ATOM     30  C   UNL     1      -4.870  -9.378 -43.798  1.00  0.00     0.078 A 
ATOM     31  C   UNL     1      -5.962  -8.579 -44.128  1.00  0.00     0.024 A 
ATOM     32  F   UNL     1      -2.576  -9.921 -44.087  1.00  0.00    -0.203 F 
ATOM     33  Cl  UNL     1      -5.069 -10.652 -42.656  1.00  0.00    -0.081 Cl
ENDBRANCH  24  26
ENDBRANCH   7  24
TORSDOF 6
ENDMDL
MODEL 5
REMARK VINA RESULT:    -9.047      2.371      3.322
REMARK INTER + INTRA:         -12.633
REMARK INTER:                 -11.123
REMARK INTRA:                  -1.510
REMARK UNBOUND:                -0.412
REMARK SMILES COc1cc2ncnc(Nc3cccc(Cl)c3F)c2cc1OC(=O)N1CCN(C)C[C@H]1C
REMARK SMILES IDX 3 1 4 2 5 3 6 4 7 5 8 6 9 7 19 8 20 9 21 10 2 11 1 12 22 13
REMARK SMILES IDX 23 14 24 15 25 16 26 17 31 18 27 19 30 20 28 21 32 22 29 23
REMARK SMILES IDX 10 24 11 26 12 27 17 28 13 29 15 30 14 31 18 32 16 33
REMARK H PARENT 10 25
ROOT
ATOM      1  C   UNL     1      -1.560 -17.140 -43.055  1.00  0.00     0.163 A 
ATOM      2  C   UNL     1      -1.459 -18.398 -42.457  1.00  0.00     0.079 A 
ATOM      3  C   UNL     1      -0.277 -18.841 -41.866  1.00  0.00     0.080 A 
ATOM      4  N   UNL     1      -0.264 -20.060 -41.323  1.00  0.00    -0.236 NA
ATOM      5  C   UNL     1       0.886 -20.462 -40.771  1.00  0.00     0.224 A 
ATOM      6  N   UNL     1       2.020 -19.759 -40.706  1.00  0.00    -0.219 NA
ATOM      7  C   UNL     1       1.999 -18.524 -41.240  1.00  0.00     0.141 A 
ATOM      8  C   UNL     1       0.850 -18.003 -41.866  1.00  0.00     0.047 A 
ATOM      9  C   UNL     1       0.767 -16.735 -42.485  1.00  0.00     0.065 A 
ATOM     10  C   UNL     1      -0.435 -16.317 -43.051  1.00  0.00     0.175 A 
ENDROOT
BRANCH   1  11
ATOM     11  O   UNL     1      -2.675 -16.639 -43.670  1.00  0.00    -0.493 OA
ATOM     12  C   UNL     1      -3.921 -17.241 -43.346  1.00  0.00     0.278 C 
ENDBRANCH   1  11
BRANCH  10  13
ATOM     13  O   UNL     1      -0.481 -15.067 -43.672  1.00  0.00    -0.406 OA
BRANCH  13  14
ATOM     14  C   UNL     1       0.365 -14.977 -44.773  1.00  0.00     0.415 C 
ATOM     15  O   UNL     1       0.161 -15.531 -45.850  1.00  0.00    -0.224 OA
BRANCH  14  16
ATOM     16  N   UNL     1       1.460 -14.163 -44.530  1.00  0.00    -0.303 N 
ATOM     17  C   UNL     1       1.292 -12.943 -43.753  1.00  0.00     0.139 C 
ATOM     18  C   UNL     1       2.752 -14.317 -45.221  1.00  0.00     0.099 C 
ATOM     19  C   UNL     1       1.623 -11.687 -44.587  1.00  0.00     0.106 C 
ATOM     20  C   UNL     1       3.591 -13.006 -45.188  1.00  0.00     0.109 C 
ATOM     21  N   UNL     1       2.766 -11.834 -45.516  1.00  0.00    -0.303 NA
ATOM     22  C   UNL     1       3.568 -15.463 -44.618  1.00  0.00     0.032 C 
ATOM     23  C   UNL     1       3.556 -10.612 -45.597  1.00  0.00     0.105 C 
ENDBRANCH  14  16
ENDBRANCH  13  14
ENDBRANCH  10  13
BRANCH   7  24
ATOM     24  N   UNL     1       3.166 -17.719 -41.168  1.00  0.00    -0.337 N 
ATOM     25  H   UNL     1       2.957 -16.866 -40.650  1.00  0.00     0.168 HD
BRANCH  24  26
ATOM     26  C   UNL     1       4.500 -18.125 -40.924  1.00  0.00     0.077 A 
ATOM     27  C   UNL     1       5.034 -18.244 -39.634  1.00  0.00     0.029 A 
ATOM     28  C   UNL     1       5.297 -18.540 -42.003  1.00  0.00     0.165 A 
ATOM     29  C   UNL     1       6.338 -18.710 -39.435  1.00  0.00     0.004 A 
ATOM     30  C   UNL     1       6.597 -19.006 -41.812  1.00  0.00     0.078 A 
ATOM     31  C   UNL     1       7.124 -19.087 -40.525  1.00  0.00     0.024 A 
ATOM     32  F   UNL     1       4.780 -18.469 -43.244  1.00  0.00    -0.203 F 
ATOM     33  Cl  UNL     1       7.563 -19.491 -43.153  1.00  0.00    -0.081 Cl
ENDBRANCH  24  26
ENDBRANCH   7  24
TORSDOF 6
ENDMDL
MODEL 6
REMARK VINA RESULT:    -8.909      2.675      6.598
REMARK INTER + INTRA:         -12.446
REMARK INTER:                 -10.788
REMARK INTRA:                  -1.658
REMARK UNBOUND:                -0.412
REMARK SMILES COc1cc2ncnc(Nc3cccc(Cl)c3F)c2cc1OC(=O)N1CCN(C)C[C@H]1C
REMARK SMILES IDX 3 1 4 2 5 3 6 4 7 5 8 6 9 7 19 8 20 9 21 10 2 11 1 12 22 13
REMARK SMILES IDX 23 14 24 15 25 16 26 17 31 18 27 19 30 20 28 21 32 22 29 23
REMARK SMILES IDX 10 24 11 26 12 27 17 28 13 29 15 30 14 31 18 32 16 33
REMARK H PARENT 10 25
ROOT
ATOM      1  C   UNL     1       0.794 -14.001 -45.506  1.00  0.00     0.163 A 
ATOM      2  C   UNL     1       2.078 -13.585 -45.861  1.00  0.00     0.079 A 
ATOM      3  C   UNL     1       3.211 -14.011 -45.169  1.00  0.00     0.080 A 
ATOM      4  N   UNL     1       4.401 -13.560 -45.571  1.00  0.00    -0.236 NA
ATOM      5  C   UNL     1       5.468 -13.979 -44.882  1.00  0.00     0.224 A 
ATOM      6  N   UNL     1       5.459 -14.810 -43.836  1.00  0.00    -0.219 NA
ATOM      7  C   UNL     1       4.259 -15.275 -43.444  1.00  0.00     0.141 A 
ATOM      8  C   UNL     1       3.064 -14.886 -44.081  1.00  0.00     0.047 A 
ATOM      9  C   UNL     1       1.768 -15.300 -43.698  1.00  0.00     0.065 A 
ATOM     10  C   UNL     1       0.661 -14.868 -44.422  1.00  0.00     0.175 A 
ENDROOT
BRANCH   1  11
ATOM     11  O   UNL     1      -0.366 -13.616 -46.120  1.00  0.00    -0.493 OA
ATOM     12  C   UNL     1      -0.277 -12.568 -47.077  1.00  0.00     0.278 C 
ENDBRANCH   1  11
BRANCH  10  13
ATOM     13  O   UNL     1      -0.609 -15.278 -44.008  1.00  0.00    -0.406 OA
BRANCH  13  14
ATOM     14  C   UNL     1      -0.916 -16.576 -44.407  1.00  0.00     0.415 C 
ATOM     15  O   UNL     1      -0.732 -17.013 -45.540  1.00  0.00    -0.224 OA
BRANCH  14  16
ATOM     16  N   UNL     1      -1.429 -17.338 -43.369  1.00  0.00    -0.303 N 
ATOM     17  C   UNL     1      -0.596 -17.634 -42.212  1.00  0.00     0.139 C 
ATOM     18  C   UNL     1      -2.693 -18.089 -43.466  1.00  0.00     0.099 C 
ATOM     19  C   UNL     1      -0.348 -19.150 -42.064  1.00  0.00     0.106 C 
ATOM     20  C   UNL     1      -2.762 -19.249 -42.430  1.00  0.00     0.109 C 
ATOM     21  N   UNL     1      -1.505 -20.011 -42.396  1.00  0.00    -0.303 NA
ATOM     22  C   UNL     1      -3.900 -17.165 -43.281  1.00  0.00     0.032 C 
ATOM     23  C   UNL     1      -1.588 -21.167 -41.512  1.00  0.00     0.105 C 
ENDBRANCH  14  16
ENDBRANCH  13  14
ENDBRANCH  10  13
BRANCH   7  24
ATOM     24  N   UNL     1       4.192 -16.188 -42.359  1.00  0.00    -0.337 N 
ATOM     25  H   UNL     1       3.446 -15.905 -41.723  1.00  0.00     0.168 HD
BRANCH  24  26
ATOM     26  C   UNL     1       4.295 -17.600 -42.391  1.00  0.00     0.077 A 
ATOM     27  C   UNL     1       5.311 -18.272 -43.084  1.00  0.00     0.029 A 
ATOM     28  C   UNL     1       3.418 -18.367 -41.608  1.00  0.00     0.165 A 
ATOM     29  C   UNL     1       5.413 -19.667 -43.037  1.00  0.00     0.004 A 
ATOM     30  C   UNL     1       3.515 -19.758 -41.557  1.00  0.00     0.078 A 
ATOM     31  C   UNL     1       4.511 -20.412 -42.277  1.00  0.00     0.024 A 
ATOM     32  F   UNL     1       2.463 -17.730 -40.906  1.00  0.00    -0.203 F 
ATOM     33  Cl  UNL     1       2.415 -20.680 -40.604  1.00  0.00    -0.081 Cl
ENDBRANCH  24  26
ENDBRANCH   7  24
TORSDOF 6
ENDMDL
MODEL 7
REMARK VINA RESULT:    -8.819      6.344     11.019
REMARK INTER + INTRA:         -12.324
REMARK INTER:                 -10.841
REMARK INTRA:                  -1.483
REMARK UNBOUND:                -0.412
REMARK SMILES COc1cc2ncnc(Nc3cccc(Cl)c3F)c2cc1OC(=O)N1CCN(C)C[C@H]1C
REMARK SMILES IDX 3 1 4 2 5 3 6 4 7 5 8 6 9 7 19 8 20 9 21 10 2 11 1 12 22 13
REMARK SMILES IDX 23 14 24 15 25 16 26 17 31 18 27 19 30 20 28 21 32 22 29 23
REMARK SMILES IDX 10 24 11 26 12 27 17 28 13 29 15 30 14 31 18 32 16 33
REMARK H PARENT 10 25
ROOT
ATOM      1  C   UNL     1      -4.061  -8.925 -44.050  1.00  0.00     0.163 A 
ATOM      2  C   UNL     1      -4.273  -7.571 -43.785  1.00  0.00     0.079 A 
ATOM      3  C   UNL     1      -3.328  -6.598 -44.109  1.00  0.00     0.080 A 
ATOM      4  N   UNL     1      -3.608  -5.326 -43.815  1.00  0.00    -0.236 NA
ATOM      5  C   UNL     1      -2.679  -4.417 -44.129  1.00  0.00     0.224 A 
ATOM      6  N   UNL     1      -1.503  -4.657 -44.714  1.00  0.00    -0.219 NA
ATOM      7  C   UNL     1      -1.231  -5.938 -45.024  1.00  0.00     0.141 A 
ATOM      8  C   UNL     1      -2.125  -6.984 -44.722  1.00  0.00     0.047 A 
ATOM      9  C   UNL     1      -1.889  -8.353 -44.978  1.00  0.00     0.065 A 
ATOM     10  C   UNL     1      -2.861  -9.296 -44.657  1.00  0.00     0.175 A 
ENDROOT
BRANCH   1  11
ATOM     11  O   UNL     1      -4.927  -9.940 -43.748  1.00  0.00    -0.493 OA
ATOM     12  C   UNL     1      -5.772  -9.758 -42.620  1.00  0.00     0.278 C 
ENDBRANCH   1  11
BRANCH  10  13
ATOM     13  O   UNL     1      -2.592 -10.644 -44.904  1.00  0.00    -0.406 OA
BRANCH  13  14
ATOM     14  C   UNL     1      -1.865 -10.845 -46.073  1.00  0.00     0.415 C 
ATOM     15  O   UNL     1      -2.146 -10.343 -47.158  1.00  0.00    -0.224 OA
BRANCH  14  16
ATOM     16  N   UNL     1      -0.761 -11.659 -45.873  1.00  0.00    -0.303 N 
ATOM     17  C   UNL     1      -0.183 -12.379 -46.999  1.00  0.00     0.139 C 
ATOM     18  C   UNL     1      -0.275 -12.049 -44.538  1.00  0.00     0.099 C 
ATOM     19  C   UNL     1      -0.275 -13.908 -46.804  1.00  0.00     0.106 C 
ATOM     20  C   UNL     1       0.583 -13.348 -44.585  1.00  0.00     0.109 C 
ATOM     21  N   UNL     1      -0.053 -14.379 -45.419  1.00  0.00    -0.303 NA
ATOM     22  C   UNL     1       0.536 -10.922 -43.894  1.00  0.00     0.032 C 
ATOM     23  C   UNL     1       0.680 -15.638 -45.388  1.00  0.00     0.105 C 
ENDBRANCH  14  16
ENDBRANCH  13  14
ENDBRANCH  10  13
BRANCH   7  24
ATOM     24  N   UNL     1      -0.010  -6.247 -45.678  1.00  0.00    -0.337 N 
ATOM     25  H   UNL     1       0.097  -5.648 -46.497  1.00  0.00     0.168 HD
BRANCH  24  26
ATOM     26  C   UNL     1       1.255  -6.512 -45.099  1.00  0.00     0.077 A 
ATOM     27  C   UNL     1       1.887  -5.626 -44.217  1.00  0.00     0.029 A 
ATOM     28  C   UNL     1       1.859  -7.761 -45.318  1.00  0.00     0.165 A 
ATOM     29  C   UNL     1       3.108  -5.956 -43.618  1.00  0.00     0.004 A 
ATOM     30  C   UNL     1       3.075  -8.096 -44.723  1.00  0.00     0.078 A 
ATOM     31  C   UNL     1       3.706  -7.190 -43.874  1.00  0.00     0.024 A 
ATOM     32  F   UNL     1       1.241  -8.637 -46.131  1.00  0.00    -0.203 F 
ATOM     33  Cl  UNL     1       3.807  -9.626 -45.022  1.00  0.00    -0.081 Cl
ENDBRANCH  24  26
ENDBRANCH   7  24
TORSDOF 6
ENDMDL
MODEL 8
REMARK VINA RESULT:    -8.657      8.062     11.225
REMARK INTER + INTRA:         -12.106
REMARK INTER:                 -10.445
REMARK INTRA:                  -1.661
REMARK UNBOUND:                -0.412
REMARK SMILES COc1cc2ncnc(Nc3cccc(Cl)c3F)c2cc1OC(=O)N1CCN(C)C[C@H]1C
REMARK SMILES IDX 3 1 4 2 5 3 6 4 7 5 8 6 9 7 19 8 20 9 21 10 2 11 1 12 22 13
REMARK SMILES IDX 23 14 24 15 25 16 26 17 31 18 27 19 30 20 28 21 32 22 29 23
REMARK SMILES IDX 10 24 11 26 12 27 17 28 13 29 15 30 14 31 18 32 16 33
REMARK H PARENT 10 25
ROOT
ATOM      1  C   UNL     1       0.512 -12.447 -45.289  1.00  0.00     0.163 A 
ATOM      2  C   UNL     1       1.902 -12.473 -45.413  1.00  0.00     0.079 A 
ATOM      3  C   UNL     1       2.687 -11.349 -45.161  1.00  0.00     0.080 A 
ATOM      4  N   UNL     1       4.009 -11.458 -45.309  1.00  0.00    -0.236 NA
ATOM      5  C   UNL     1       4.735 -10.361 -45.070  1.00  0.00     0.224 A 
ATOM      6  N   UNL     1       4.267  -9.170 -44.690  1.00  0.00    -0.219 NA
ATOM      7  C   UNL     1       2.935  -9.067 -44.526  1.00  0.00     0.141 A 
ATOM      8  C   UNL     1       2.069 -10.151 -44.769  1.00  0.00     0.047 A 
ATOM      9  C   UNL     1       0.660 -10.104 -44.659  1.00  0.00     0.065 A 
ATOM     10  C   UNL     1      -0.091 -11.251 -44.902  1.00  0.00     0.175 A 
ENDROOT
BRANCH   1  11
ATOM     11  O   UNL     1      -0.329 -13.498 -45.534  1.00  0.00    -0.493 OA
ATOM     12  C   UNL     1      -0.241 -14.115 -46.812  1.00  0.00     0.278 C 
ENDBRANCH   1  11
BRANCH  10  13
ATOM     13  O   UNL     1      -1.483 -11.170 -44.803  1.00  0.00    -0.406 OA
BRANCH  13  14
ATOM     14  C   UNL     1      -2.062 -10.489 -45.869  1.00  0.00     0.415 C 
ATOM     15  O   UNL     1      -1.782 -10.683 -47.049  1.00  0.00    -0.224 OA
BRANCH  14  16
ATOM     16  N   UNL     1      -3.021  -9.579 -45.453  1.00  0.00    -0.303 N 
ATOM     17  C   UNL     1      -3.447  -8.517 -46.355  1.00  0.00     0.139 C 
ATOM     18  C   UNL     1      -3.467  -9.456 -44.054  1.00  0.00     0.099 C 
ATOM     19  C   UNL     1      -3.109  -7.121 -45.790  1.00  0.00     0.106 C 
ATOM     20  C   UNL     1      -4.098  -8.063 -43.763  1.00  0.00     0.109 C 
ATOM     21  N   UNL     1      -3.282  -6.977 -44.327  1.00  0.00    -0.303 NA
ATOM     22  C   UNL     1      -4.468 -10.557 -43.695  1.00  0.00     0.032 C 
ATOM     23  C   UNL     1      -3.798  -5.662 -43.972  1.00  0.00     0.105 C 
ENDBRANCH  14  16
ENDBRANCH  13  14
ENDBRANCH  10  13
BRANCH   7  24
ATOM     24  N   UNL     1       2.385  -7.833 -44.090  1.00  0.00    -0.337 N 
ATOM     25  H   UNL     1       2.727  -7.622 -43.152  1.00  0.00     0.168 HD
BRANCH  24  26
ATOM     26  C   UNL     1       2.216  -6.637 -44.829  1.00  0.00     0.077 A 
ATOM     27  C   UNL     1       3.271  -5.999 -45.494  1.00  0.00     0.029 A 
ATOM     28  C   UNL     1       0.922  -6.120 -45.005  1.00  0.00     0.165 A 
ATOM     29  C   UNL     1       3.047  -4.853 -46.265  1.00  0.00     0.004 A 
ATOM     30  C   UNL     1       0.692  -4.979 -45.773  1.00  0.00     0.078 A 
ATOM     31  C   UNL     1       1.758  -4.338 -46.402  1.00  0.00     0.024 A 
ATOM     32  F   UNL     1      -0.105  -6.748 -44.403  1.00  0.00    -0.203 F 
ATOM     33  Cl  UNL     1      -0.901  -4.351 -45.959  1.00  0.00    -0.081 Cl
ENDBRANCH  24  26
ENDBRANCH   7  24
TORSDOF 6
ENDMDL
MODEL 9
REMARK VINA RESULT:    -8.525      6.524     10.163
REMARK INTER + INTRA:         -11.927
REMARK INTER:                 -10.722
REMARK INTRA:                  -1.205
REMARK UNBOUND:                -0.412
REMARK SMILES COc1cc2ncnc(Nc3cccc(Cl)c3F)c2cc1OC(=O)N1CCN(C)C[C@H]1C
REMARK SMILES IDX 3 1 4 2 5 3 6 4 7 5 8 6 9 7 19 8 20 9 21 10 2 11 1 12 22 13
REMARK SMILES IDX 23 14 24 15 25 16 26 17 31 18 27 19 30 20 28 21 32 22 29 23
REMARK SMILES IDX 10 24 11 26 12 27 17 28 13 29 15 30 14 31 18 32 16 33
REMARK H PARENT 10 25
ROOT
ATOM      1  C   UNL     1      -2.052  -9.900 -45.005  1.00  0.00     0.163 A 
ATOM      2  C   UNL     1      -2.022  -8.508 -45.102  1.00  0.00     0.079 A 
ATOM      3  C   UNL     1      -0.827  -7.803 -45.242  1.00  0.00     0.080 A 
ATOM      4  N   UNL     1      -0.887  -6.472 -45.322  1.00  0.00    -0.236 NA
ATOM      5  C   UNL     1       0.275  -5.822 -45.446  1.00  0.00     0.224 A 
ATOM      6  N   UNL     1       1.489  -6.377 -45.505  1.00  0.00    -0.219 NA
ATOM      7  C   UNL     1       1.545  -7.720 -45.441  1.00  0.00     0.141 A 
ATOM      8  C   UNL     1       0.386  -8.507 -45.288  1.00  0.00     0.047 A 
ATOM      9  C   UNL     1       0.373  -9.916 -45.172  1.00  0.00     0.065 A 
ATOM     10  C   UNL     1      -0.840 -10.589 -45.050  1.00  0.00     0.175 A 
ENDROOT
BRANCH   1  11
ATOM     11  O   UNL     1      -3.177 -10.663 -44.848  1.00  0.00    -0.493 OA
ATOM     12  C   UNL     1      -4.112 -10.246 -43.862  1.00  0.00     0.278 C 
ENDBRANCH   1  11
BRANCH  10  13
ATOM     13  O   UNL     1      -0.822 -11.979 -44.917  1.00  0.00    -0.406 OA
BRANCH  13  14
ATOM     14  C   UNL     1      -0.434 -12.630 -46.085  1.00  0.00     0.415 C 
ATOM     15  O   UNL     1      -0.673 -12.220 -47.218  1.00  0.00    -0.224 OA
BRANCH  14  16
ATOM     16  N   UNL     1       0.285 -13.787 -45.828  1.00  0.00    -0.303 N 
ATOM     17  C   UNL     1       0.931 -13.961 -44.535  1.00  0.00     0.139 C 
ATOM     18  C   UNL     1       0.655 -14.758 -46.873  1.00  0.00     0.099 C 
ATOM     19  C   UNL     1       2.465 -14.061 -44.675  1.00  0.00     0.106 C 
ATOM     20  C   UNL     1       1.873 -15.631 -46.451  1.00  0.00     0.109 C 
ATOM     21  N   UNL     1       2.941 -14.811 -45.858  1.00  0.00    -0.303 NA
ATOM     22  C   UNL     1      -0.526 -15.663 -47.229  1.00  0.00     0.032 C 
ATOM     23  C   UNL     1       4.132 -15.596 -45.558  1.00  0.00     0.105 C 
ENDBRANCH  14  16
ENDBRANCH  13  14
ENDBRANCH  10  13
BRANCH   7  24
ATOM     24  N   UNL     1       2.806  -8.365 -45.534  1.00  0.00    -0.337 N 
ATOM     25  H   UNL     1       3.096  -8.402 -46.511  1.00  0.00     0.168 HD
BRANCH  24  26
ATOM     26  C   UNL     1       3.935  -8.211 -44.694  1.00  0.00     0.077 A 
ATOM     27  C   UNL     1       3.852  -7.689 -43.396  1.00  0.00     0.029 A 
ATOM     28  C   UNL     1       5.178  -8.702 -45.124  1.00  0.00     0.165 A 
ATOM     29  C   UNL     1       4.984  -7.613 -42.577  1.00  0.00     0.004 A 
ATOM     30  C   UNL     1       6.310  -8.630 -44.312  1.00  0.00     0.078 A 
ATOM     31  C   UNL     1       6.216  -8.079 -43.036  1.00  0.00     0.024 A 
ATOM     32  F   UNL     1       5.262  -9.243 -46.353  1.00  0.00    -0.203 F 
ATOM     33  Cl  UNL     1       7.829  -9.222 -44.868  1.00  0.00    -0.081 Cl
ENDBRANCH  24  26
ENDBRANCH   7  24
TORSDOF 6
ENDMDL
MODEL 10
REMARK VINA RESULT:    -8.525      3.464      6.222
REMARK INTER + INTRA:         -11.927
REMARK INTER:                 -10.545
REMARK INTRA:                  -1.381
REMARK UNBOUND:                -0.412
REMARK SMILES COc1cc2ncnc(Nc3cccc(Cl)c3F)c2cc1OC(=O)N1CCN(C)C[C@H]1C
REMARK SMILES IDX 3 1 4 2 5 3 6 4 7 5 8 6 9 7 19 8 20 9 21 10 2 11 1 12 22 13
REMARK SMILES IDX 23 14 24 15 25 16 26 17 31 18 27 19 30 20 28 21 32 22 29 23
REMARK SMILES IDX 10 24 11 26 12 27 17 28 13 29 15 30 14 31 18 32 16 33
REMARK H PARENT 10 25
ROOT
ATOM      1  C   UNL     1       4.870 -15.888 -44.801  1.00  0.00     0.163 A 
ATOM      2  C   UNL     1       5.420 -16.784 -43.883  1.00  0.00     0.079 A 
ATOM      3  C   UNL     1       4.681 -17.297 -42.818  1.00  0.00     0.080 A 
ATOM      4  N   UNL     1       5.287 -18.144 -41.982  1.00  0.00    -0.236 NA
ATOM      5  C   UNL     1       4.556 -18.613 -40.965  1.00  0.00     0.224 A 
ATOM      6  N   UNL     1       3.278 -18.320 -40.709  1.00  0.00    -0.219 NA
ATOM      7  C   UNL     1       2.666 -17.479 -41.562  1.00  0.00     0.141 A 
ATOM      8  C   UNL     1       3.343 -16.907 -42.657  1.00  0.00     0.047 A 
ATOM      9  C   UNL     1       2.778 -15.985 -43.568  1.00  0.00     0.065 A 
ATOM     10  C   UNL     1       3.540 -15.506 -44.630  1.00  0.00     0.175 A 
ENDROOT
BRANCH   1  11
ATOM     11  O   UNL     1       5.531 -15.326 -45.860  1.00  0.00    -0.493 OA
ATOM     12  C   UNL     1       5.715 -16.138 -47.012  1.00  0.00     0.278 C 
ENDBRANCH   1  11
BRANCH  10  13
ATOM     13  O   UNL     1       2.962 -14.581 -45.503  1.00  0.00    -0.406 OA
BRANCH  13  14
ATOM     14  C   UNL     1       2.708 -13.352 -44.900  1.00  0.00     0.415 C 
ATOM     15  O   UNL     1       3.575 -12.622 -44.427  1.00  0.00    -0.224 OA
BRANCH  14  16
ATOM     16  N   UNL     1       1.361 -13.025 -44.918  1.00  0.00    -0.303 N 
ATOM     17  C   UNL     1       0.423 -13.877 -45.636  1.00  0.00     0.139 C 
ATOM     18  C   UNL     1       0.839 -11.725 -44.465  1.00  0.00     0.099 C 
ATOM     19  C   UNL     1      -0.255 -13.121 -46.799  1.00  0.00     0.106 C 
ATOM     20  C   UNL     1      -0.558 -11.412 -45.078  1.00  0.00     0.109 C 
ATOM     21  N   UNL     1      -0.589 -11.706 -46.518  1.00  0.00    -0.303 NA
ATOM     22  C   UNL     1       0.753 -11.666 -42.938  1.00  0.00     0.032 C 
ATOM     23  C   UNL     1      -1.853 -11.318 -47.131  1.00  0.00     0.105 C 
ENDBRANCH  14  16
ENDBRANCH  13  14
ENDBRANCH  10  13
BRANCH   7  24
ATOM     24  N   UNL     1       1.298 -17.160 -41.358  1.00  0.00    -0.337 N 
ATOM     25  H   UNL     1       1.184 -16.146 -41.354  1.00  0.00     0.168 HD
BRANCH  24  26
ATOM     26  C   UNL     1       0.158 -17.777 -41.926  1.00  0.00     0.077 A 
ATOM     27  C   UNL     1      -0.563 -17.214 -42.987  1.00  0.00     0.029 A 
ATOM     28  C   UNL     1      -0.210 -19.062 -41.494  1.00  0.00     0.165 A 
ATOM     29  C   UNL     1      -1.646 -17.889 -43.560  1.00  0.00     0.004 A 
ATOM     30  C   UNL     1      -1.288 -19.741 -42.062  1.00  0.00     0.078 A 
ATOM     31  C   UNL     1      -2.013 -19.152 -43.095  1.00  0.00     0.024 A 
ATOM     32  F   UNL     1       0.500 -19.631 -40.503  1.00  0.00    -0.203 F 
ATOM     33  Cl  UNL     1      -1.732 -21.308 -41.503  1.00  0.00    -0.081 Cl
ENDBRANCH  24  26
ENDBRANCH   7  24
TORSDOF 6
ENDMDL
MODEL 11
REMARK VINA RESULT:    -8.522      6.442      9.933
REMARK INTER + INTRA:         -11.924
REMARK INTER:                 -10.620
REMARK INTRA:                  -1.304
REMARK UNBOUND:                -0.412
REMARK SMILES COc1cc2ncnc(Nc3cccc(Cl)c3F)c2cc1OC(=O)N1CCN(C)C[C@H]1C
REMARK SMILES IDX 3 1 4 2 5 3 6 4 7 5 8 6 9 7 19 8 20 9 21 10 2 11 1 12 22 13
REMARK SMILES IDX 23 14 24 15 25 16 26 17 31 18 27 19 30 20 28 21 32 22 29 23
REMARK SMILES IDX 10 24 11 26 12 27 17 28 13 29 15 30 14 31 18 32 16 33
REMARK H PARENT 10 25
ROOT
ATOM      1  C   UNL     1       0.691  -6.878 -44.885  1.00  0.00     0.163 A 
ATOM      2  C   UNL     1      -0.659  -7.234 -44.877  1.00  0.00     0.079 A 
ATOM      3  C   UNL     1      -1.079  -8.544 -45.101  1.00  0.00     0.080 A 
ATOM      4  N   UNL     1      -2.390  -8.796 -45.083  1.00  0.00    -0.236 NA
ATOM      5  C   UNL     1      -2.763 -10.060 -45.311  1.00  0.00     0.224 A 
ATOM      6  N   UNL     1      -1.952 -11.094 -45.548  1.00  0.00    -0.219 NA
ATOM      7  C   UNL     1      -0.631 -10.839 -45.550  1.00  0.00     0.141 A 
ATOM      8  C   UNL     1      -0.122  -9.542 -45.342  1.00  0.00     0.047 A 
ATOM      9  C   UNL     1       1.247  -9.194 -45.372  1.00  0.00     0.065 A 
ATOM     10  C   UNL     1       1.633  -7.878 -45.127  1.00  0.00     0.175 A 
ENDROOT
BRANCH   1  11
ATOM     11  O   UNL     1       1.184  -5.617 -44.692  1.00  0.00    -0.493 OA
ATOM     12  C   UNL     1       1.024  -4.688 -45.756  1.00  0.00     0.278 C 
ENDBRANCH   1  11
BRANCH  10  13
ATOM     13  O   UNL     1       2.991  -7.559 -45.183  1.00  0.00    -0.406 OA
BRANCH  13  14
ATOM     14  C   UNL     1       3.740  -8.205 -44.203  1.00  0.00     0.415 C 
ATOM     15  O   UNL     1       3.430  -8.252 -43.015  1.00  0.00    -0.224 OA
BRANCH  14  16
ATOM     16  N   UNL     1       4.869  -8.819 -44.722  1.00  0.00    -0.303 N 
ATOM     17  C   UNL     1       4.723  -9.862 -45.727  1.00  0.00     0.139 C 
ATOM     18  C   UNL     1       6.214  -8.664 -44.141  1.00  0.00     0.099 C 
ATOM     19  C   UNL     1       5.264 -11.217 -45.223  1.00  0.00     0.106 C 
ATOM     20  C   UNL     1       7.160  -9.834 -44.540  1.00  0.00     0.109 C 
ATOM     21  N   UNL     1       6.491 -11.135 -44.399  1.00  0.00    -0.303 NA
ATOM     22  C   UNL     1       6.843  -7.331 -44.554  1.00  0.00     0.032 C 
ATOM     23  C   UNL     1       7.394 -12.248 -44.663  1.00  0.00     0.105 C 
ENDBRANCH  14  16
ENDBRANCH  13  14
ENDBRANCH  10  13
BRANCH   7  24
ATOM     24  N   UNL     1       0.280 -11.908 -45.762  1.00  0.00    -0.337 N 
ATOM     25  H   UNL     1       1.186 -11.665 -45.361  1.00  0.00     0.168 HD
BRANCH  24  26
ATOM     26  C   UNL     1       0.046 -13.299 -45.636  1.00  0.00     0.077 A 
ATOM     27  C   UNL     1      -0.246 -14.122 -46.731  1.00  0.00     0.029 A 
ATOM     28  C   UNL     1       0.225 -13.911 -44.385  1.00  0.00     0.165 A 
ATOM     29  C   UNL     1      -0.407 -15.503 -46.570  1.00  0.00     0.004 A 
ATOM     30  C   UNL     1       0.067 -15.286 -44.218  1.00  0.00     0.078 A 
ATOM     31  C   UNL     1      -0.256 -16.086 -45.311  1.00  0.00     0.024 A 
ATOM     32  F   UNL     1       0.547 -13.135 -43.333  1.00  0.00    -0.203 F 
ATOM     33  Cl  UNL     1       0.272 -16.012 -42.670  1.00  0.00    -0.081 Cl
ENDBRANCH  24  26
ENDBRANCH   7  24
TORSDOF 6
ENDMDL
MODEL 12
REMARK VINA RESULT:    -8.504      8.081     11.513
REMARK INTER + INTRA:         -11.899
REMARK INTER:                 -10.629
REMARK INTRA:                  -1.271
REMARK UNBOUND:                -0.412
REMARK SMILES COc1cc2ncnc(Nc3cccc(Cl)c3F)c2cc1OC(=O)N1CCN(C)C[C@H]1C
REMARK SMILES IDX 3 1 4 2 5 3 6 4 7 5 8 6 9 7 19 8 20 9 21 10 2 11 1 12 22 13
REMARK SMILES IDX 23 14 24 15 25 16 26 17 31 18 27 19 30 20 28 21 32 22 29 23
REMARK SMILES IDX 10 24 11 26 12 27 17 28 13 29 15 30 14 31 18 32 16 33
REMARK H PARENT 10 25
ROOT
ATOM      1  C   UNL     1       2.045 -11.853 -45.657  1.00  0.00     0.163 A 
ATOM      2  C   UNL     1       0.834 -12.233 -46.238  1.00  0.00     0.079 A 
ATOM      3  C   UNL     1      -0.252 -11.362 -46.317  1.00  0.00     0.080 A 
ATOM      4  N   UNL     1      -1.376 -11.808 -46.883  1.00  0.00    -0.236 NA
ATOM      5  C   UNL     1      -2.404 -10.955 -46.937  1.00  0.00     0.224 A 
ATOM      6  N   UNL     1      -2.412  -9.697 -46.485  1.00  0.00    -0.219 NA
ATOM      7  C   UNL     1      -1.273  -9.246 -45.930  1.00  0.00     0.141 A 
ATOM      8  C   UNL     1      -0.132 -10.063 -45.801  1.00  0.00     0.047 A 
ATOM      9  C   UNL     1       1.082  -9.670 -45.192  1.00  0.00     0.065 A 
ATOM     10  C   UNL     1       2.152 -10.560 -45.145  1.00  0.00     0.175 A 
ENDROOT
BRANCH   1  11
ATOM     11  O   UNL     1       3.149 -12.650 -45.525  1.00  0.00    -0.493 OA
ATOM     12  C   UNL     1       3.080 -13.700 -44.569  1.00  0.00     0.278 C 
ENDBRANCH   1  11
BRANCH  10  13
ATOM     13  O   UNL     1       3.333 -10.152 -44.521  1.00  0.00    -0.406 OA
BRANCH  13  14
ATOM     14  C   UNL     1       4.031  -9.197 -45.254  1.00  0.00     0.415 C 
ATOM     15  O   UNL     1       4.438  -9.366 -46.400  1.00  0.00    -0.224 OA
BRANCH  14  16
ATOM     16  N   UNL     1       4.193  -8.011 -44.554  1.00  0.00    -0.303 N 
ATOM     17  C   UNL     1       5.388  -7.810 -43.746  1.00  0.00     0.139 C 
ATOM     18  C   UNL     1       3.112  -7.028 -44.367  1.00  0.00     0.099 C 
ATOM     19  C   UNL     1       5.043  -7.649 -42.250  1.00  0.00     0.106 C 
ATOM     20  C   UNL     1       3.369  -6.105 -43.139  1.00  0.00     0.109 C 
ATOM     21  N   UNL     1       3.809  -6.881 -41.970  1.00  0.00    -0.303 NA
ATOM     22  C   UNL     1       2.923  -6.171 -45.621  1.00  0.00     0.032 C 
ATOM     23  C   UNL     1       3.949  -6.049 -40.781  1.00  0.00     0.105 C 
ENDBRANCH  14  16
ENDBRANCH  13  14
ENDBRANCH  10  13
BRANCH   7  24
ATOM     24  N   UNL     1      -1.213  -7.906 -45.464  1.00  0.00    -0.337 N 
ATOM     25  H   UNL     1      -0.567  -7.374 -46.046  1.00  0.00     0.168 HD
BRANCH  24  26
ATOM     26  C   UNL     1      -2.278  -7.078 -45.033  1.00  0.00     0.077 A 
ATOM     27  C   UNL     1      -2.615  -5.878 -45.672  1.00  0.00     0.029 A 
ATOM     28  C   UNL     1      -3.111  -7.523 -43.993  1.00  0.00     0.165 A 
ATOM     29  C   UNL     1      -3.715  -5.123 -45.251  1.00  0.00     0.004 A 
ATOM     30  C   UNL     1      -4.210  -6.775 -43.570  1.00  0.00     0.078 A 
ATOM     31  C   UNL     1      -4.512  -5.568 -44.196  1.00  0.00     0.024 A 
ATOM     32  F   UNL     1      -2.822  -8.695 -43.398  1.00  0.00    -0.203 F 
ATOM     33  Cl  UNL     1      -5.206  -7.332 -42.280  1.00  0.00    -0.081 Cl
ENDBRANCH  24  26
ENDBRANCH   7  24
TORSDOF 6
ENDMDL
MODEL 13
REMARK VINA RESULT:    -8.467      2.733      3.850
REMARK INTER + INTRA:         -11.849
REMARK INTER:                 -10.642
REMARK INTRA:                  -1.207
REMARK UNBOUND:                -0.412
REMARK SMILES COc1cc2ncnc(Nc3cccc(Cl)c3F)c2cc1OC(=O)N1CCN(C)C[C@H]1C
REMARK SMILES IDX 3 1 4 2 5 3 6 4 7 5 8 6 9 7 19 8 20 9 21 10 2 11 1 12 22 13
REMARK SMILES IDX 23 14 24 15 25 16 26 17 31 18 27 19 30 20 28 21 32 22 29 23
REMARK SMILES IDX 10 24 11 26 12 27 17 28 13 29 15 30 14 31 18 32 16 33
REMARK H PARENT 10 25
ROOT
ATOM      1  C   UNL     1      -1.604 -17.027 -43.124  1.00  0.00     0.163 A 
ATOM      2  C   UNL     1      -1.492 -18.198 -42.372  1.00  0.00     0.079 A 
ATOM      3  C   UNL     1      -0.298 -18.567 -41.753  1.00  0.00     0.080 A 
ATOM      4  N   UNL     1      -0.275 -19.706 -41.058  1.00  0.00    -0.236 NA
ATOM      5  C   UNL     1       0.886 -20.038 -40.484  1.00  0.00     0.224 A 
ATOM      6  N   UNL     1       2.022 -19.337 -40.532  1.00  0.00    -0.219 NA
ATOM      7  C   UNL     1       1.991 -18.181 -41.219  1.00  0.00     0.141 A 
ATOM      8  C   UNL     1       0.829 -17.740 -41.884  1.00  0.00     0.047 A 
ATOM      9  C   UNL     1       0.735 -16.561 -42.657  1.00  0.00     0.065 A 
ATOM     10  C   UNL     1      -0.477 -16.215 -43.248  1.00  0.00     0.175 A 
ENDROOT
BRANCH   1  11
ATOM     11  O   UNL     1      -2.731 -16.604 -43.775  1.00  0.00    -0.493 OA
ATOM     12  C   UNL     1      -3.966 -17.187 -43.379  1.00  0.00     0.278 C 
ENDBRANCH   1  11
BRANCH  10  13
ATOM     13  O   UNL     1      -0.535 -15.054 -44.023  1.00  0.00    -0.406 OA
BRANCH  13  14
ATOM     14  C   UNL     1       0.397 -14.097 -43.635  1.00  0.00     0.415 C 
ATOM     15  O   UNL     1       0.404 -13.543 -42.539  1.00  0.00    -0.224 OA
BRANCH  14  16
ATOM     16  N   UNL     1       1.343 -13.854 -44.618  1.00  0.00    -0.303 N 
ATOM     17  C   UNL     1       1.468 -14.775 -45.740  1.00  0.00     0.139 C 
ATOM     18  C   UNL     1       2.414 -12.853 -44.481  1.00  0.00     0.099 C 
ATOM     19  C   UNL     1       2.858 -15.447 -45.770  1.00  0.00     0.106 C 
ATOM     20  C   UNL     1       3.615 -13.149 -45.427  1.00  0.00     0.109 C 
ATOM     21  N   UNL     1       3.988 -14.571 -45.389  1.00  0.00    -0.303 NA
ATOM     22  C   UNL     1       1.888 -11.441 -44.749  1.00  0.00     0.032 C 
ATOM     23  C   UNL     1       5.177 -14.848 -46.184  1.00  0.00     0.105 C 
ENDBRANCH  14  16
ENDBRANCH  13  14
ENDBRANCH  10  13
BRANCH   7  24
ATOM     24  N   UNL     1       3.160 -17.377 -41.275  1.00  0.00    -0.337 N 
ATOM     25  H   UNL     1       3.282 -16.896 -40.384  1.00  0.00     0.168 HD
BRANCH  24  26
ATOM     26  C   UNL     1       4.420 -17.698 -41.835  1.00  0.00     0.077 A 
ATOM     27  C   UNL     1       4.780 -17.355 -43.144  1.00  0.00     0.029 A 
ATOM     28  C   UNL     1       5.401 -18.284 -41.017  1.00  0.00     0.165 A 
ATOM     29  C   UNL     1       6.060 -17.636 -43.636  1.00  0.00     0.004 A 
ATOM     30  C   UNL     1       6.678 -18.566 -41.501  1.00  0.00     0.078 A 
ATOM     31  C   UNL     1       7.010 -18.247 -42.816  1.00  0.00     0.024 A 
ATOM     32  F   UNL     1       5.079 -18.581 -39.745  1.00  0.00    -0.203 F 
ATOM     33  Cl  UNL     1       7.859 -19.302 -40.486  1.00  0.00    -0.081 Cl
ENDBRANCH  24  26
ENDBRANCH   7  24
TORSDOF 6
ENDMDL
MODEL 14
REMARK VINA RESULT:    -8.457      5.719     11.204
REMARK INTER + INTRA:         -11.836
REMARK INTER:                 -10.623
REMARK INTRA:                  -1.213
REMARK UNBOUND:                -0.412
REMARK SMILES COc1cc2ncnc(Nc3cccc(Cl)c3F)c2cc1OC(=O)N1CCN(C)C[C@H]1C
REMARK SMILES IDX 3 1 4 2 5 3 6 4 7 5 8 6 9 7 19 8 20 9 21 10 2 11 1 12 22 13
REMARK SMILES IDX 23 14 24 15 25 16 26 17 31 18 27 19 30 20 28 21 32 22 29 23
REMARK SMILES IDX 10 24 11 26 12 27 17 28 13 29 15 30 14 31 18 32 16 33
REMARK H PARENT 10 25
ROOT
ATOM      1  C   UNL     1       3.902  -9.709 -45.020  1.00  0.00     0.163 A 
ATOM      2  C   UNL     1       3.685  -8.376 -44.666  1.00  0.00     0.079 A 
ATOM      3  C   UNL     1       2.431  -7.778 -44.778  1.00  0.00     0.080 A 
ATOM      4  N   UNL     1       2.311  -6.496 -44.425  1.00  0.00    -0.236 NA
ATOM      5  C   UNL     1       1.099  -5.947 -44.551  1.00  0.00     0.224 A 
ATOM      6  N   UNL     1      -0.005  -6.558 -44.990  1.00  0.00    -0.219 NA
ATOM      7  C   UNL     1       0.115  -7.854 -45.330  1.00  0.00     0.141 A 
ATOM      8  C   UNL     1       1.348  -8.532 -45.258  1.00  0.00     0.047 A 
ATOM      9  C   UNL     1       1.558  -9.878 -45.637  1.00  0.00     0.065 A 
ATOM     10  C   UNL     1       2.820 -10.448 -45.496  1.00  0.00     0.175 A 
ENDROOT
BRANCH   1  11
ATOM     11  O   UNL     1       5.102 -10.364 -44.957  1.00  0.00    -0.493 OA
ATOM     12  C   UNL     1       6.094  -9.993 -45.905  1.00  0.00     0.278 C 
ENDBRANCH   1  11
BRANCH  10  13
ATOM     13  O   UNL     1       3.002 -11.774 -45.897  1.00  0.00    -0.406 OA
BRANCH  13  14
ATOM     14  C   UNL     1       2.753 -12.687 -44.877  1.00  0.00     0.415 C 
ATOM     15  O   UNL     1       3.544 -12.948 -43.974  1.00  0.00    -0.224 OA
BRANCH  14  16
ATOM     16  N   UNL     1       1.492 -13.254 -44.974  1.00  0.00    -0.303 N 
ATOM     17  C   UNL     1       0.641 -13.325 -43.795  1.00  0.00     0.139 C 
ATOM     18  C   UNL     1       1.041 -14.027 -46.145  1.00  0.00     0.099 C 
ATOM     19  C   UNL     1       0.331 -14.786 -43.404  1.00  0.00     0.106 C 
ATOM     20  C   UNL     1      -0.138 -14.981 -45.794  1.00  0.00     0.109 C 
ATOM     21  N   UNL     1       0.115 -15.708 -44.541  1.00  0.00    -0.303 NA
ATOM     22  C   UNL     1       0.628 -13.101 -47.292  1.00  0.00     0.032 C 
ATOM     23  C   UNL     1      -0.927 -16.685 -44.253  1.00  0.00     0.105 C 
ENDBRANCH  14  16
ENDBRANCH  13  14
ENDBRANCH  10  13
BRANCH   7  24
ATOM     24  N   UNL     1      -1.033  -8.564 -45.770  1.00  0.00    -0.337 N 
ATOM     25  H   UNL     1      -0.802  -9.552 -45.873  1.00  0.00     0.168 HD
BRANCH  24  26
ATOM     26  C   UNL     1      -2.374  -8.418 -45.339  1.00  0.00     0.077 A 
ATOM     27  C   UNL     1      -3.337  -7.716 -46.074  1.00  0.00     0.029 A 
ATOM     28  C   UNL     1      -2.798  -9.098 -44.185  1.00  0.00     0.165 A 
ATOM     29  C   UNL     1      -4.666  -7.651 -45.642  1.00  0.00     0.004 A 
ATOM     30  C   UNL     1      -4.121  -9.038 -43.749  1.00  0.00     0.078 A 
ATOM     31  C   UNL     1      -5.059  -8.308 -44.476  1.00  0.00     0.024 A 
ATOM     32  F   UNL     1      -1.890  -9.809 -43.492  1.00  0.00    -0.203 F 
ATOM     33  Cl  UNL     1      -4.614  -9.863 -42.320  1.00  0.00    -0.081 Cl
ENDBRANCH  24  26
ENDBRANCH   7  24
TORSDOF 6
ENDMDL
MODEL 15
REMARK VINA RESULT:    -8.416      6.851     10.523
REMARK INTER + INTRA:         -11.780
REMARK INTER:                 -10.603
REMARK INTRA:                  -1.177
REMARK UNBOUND:                -0.412
REMARK SMILES COc1cc2ncnc(Nc3cccc(Cl)c3F)c2cc1OC(=O)N1CCN(C)C[C@H]1C
REMARK SMILES IDX 3 1 4 2 5 3 6 4 7 5 8 6 9 7 19 8 20 9 21 10 2 11 1 12 22 13
REMARK SMILES IDX 23 14 24 15 25 16 26 17 31 18 27 19 30 20 28 21 32 22 29 23
REMARK SMILES IDX 10 24 11 26 12 27 17 28 13 29 15 30 14 31 18 32 16 33
REMARK H PARENT 10 25
ROOT
ATOM      1  C   UNL     1      -2.855  -9.669 -44.152  1.00  0.00     0.163 A 
ATOM      2  C   UNL     1      -3.050  -8.342 -43.763  1.00  0.00     0.079 A 
ATOM      3  C   UNL     1      -2.123  -7.343 -44.056  1.00  0.00     0.080 A 
ATOM      4  N   UNL     1      -2.385  -6.101 -43.641  1.00  0.00    -0.236 NA
ATOM      5  C   UNL     1      -1.473  -5.166 -43.927  1.00  0.00     0.224 A 
ATOM      6  N   UNL     1      -0.331  -5.352 -44.594  1.00  0.00    -0.219 NA
ATOM      7  C   UNL     1      -0.078  -6.602 -45.025  1.00  0.00     0.141 A 
ATOM      8  C   UNL     1      -0.957  -7.672 -44.763  1.00  0.00     0.047 A 
ATOM      9  C   UNL     1      -0.737  -9.014 -45.147  1.00  0.00     0.065 A 
ATOM     10  C   UNL     1      -1.692  -9.984 -44.853  1.00  0.00     0.175 A 
ENDROOT
BRANCH   1  11
ATOM     11  O   UNL     1      -3.705 -10.709 -43.891  1.00  0.00    -0.493 OA
ATOM     12  C   UNL     1      -5.012 -10.380 -43.437  1.00  0.00     0.278 C 
ENDBRANCH   1  11
BRANCH  10  13
ATOM     13  O   UNL     1      -1.438 -11.305 -45.228  1.00  0.00    -0.406 OA
BRANCH  13  14
ATOM     14  C   UNL     1      -0.289 -11.824 -44.640  1.00  0.00     0.415 C 
ATOM     15  O   UNL     1       0.051 -11.612 -43.479  1.00  0.00    -0.224 OA
BRANCH  14  16
ATOM     16  N   UNL     1       0.424 -12.638 -45.506  1.00  0.00    -0.303 N 
ATOM     17  C   UNL     1      -0.072 -12.860 -46.858  1.00  0.00     0.139 C 
ATOM     18  C   UNL     1       1.532 -13.507 -45.073  1.00  0.00     0.099 C 
ATOM     19  C   UNL     1      -0.409 -14.347 -47.102  1.00  0.00     0.106 C 
ATOM     20  C   UNL     1       1.782 -14.675 -46.071  1.00  0.00     0.109 C 
ATOM     21  N   UNL     1       0.520 -15.313 -46.475  1.00  0.00    -0.303 NA
ATOM     22  C   UNL     1       2.823 -12.705 -44.889  1.00  0.00     0.032 C 
ATOM     23  C   UNL     1       0.742 -16.477 -47.324  1.00  0.00     0.105 C 
ENDBRANCH  14  16
ENDBRANCH  13  14
ENDBRANCH  10  13
BRANCH   7  24
ATOM     24  N   UNL     1       1.105  -6.851 -45.769  1.00  0.00    -0.337 N 
ATOM     25  H   UNL     1       1.382  -6.000 -46.259  1.00  0.00     0.168 HD
BRANCH  24  26
ATOM     26  C   UNL     1       2.250  -7.585 -45.377  1.00  0.00     0.077 A 
ATOM     27  C   UNL     1       2.773  -8.640 -46.136  1.00  0.00     0.029 A 
ATOM     28  C   UNL     1       2.969  -7.175 -44.242  1.00  0.00     0.165 A 
ATOM     29  C   UNL     1       3.944  -9.297 -45.743  1.00  0.00     0.004 A 
ATOM     30  C   UNL     1       4.137  -7.825 -43.846  1.00  0.00     0.078 A 
ATOM     31  C   UNL     1       4.626  -8.893 -44.595  1.00  0.00     0.024 A 
ATOM     32  F   UNL     1       2.498  -6.136 -43.528  1.00  0.00    -0.203 F 
ATOM     33  Cl  UNL     1       4.991  -7.317 -42.440  1.00  0.00    -0.081 Cl
ENDBRANCH  24  26
ENDBRANCH   7  24
TORSDOF 6
ENDMDL
MODEL 16
REMARK VINA RESULT:    -8.393      3.885      7.375
REMARK INTER + INTRA:         -11.749
REMARK INTER:                 -10.760
REMARK INTRA:                  -0.988
REMARK UNBOUND:                -0.412
REMARK SMILES COc1cc2ncnc(Nc3cccc(Cl)c3F)c2cc1OC(=O)N1CCN(C)C[C@H]1C
REMARK SMILES IDX 3 1 4 2 5 3 6 4 7 5 8 6 9 7 19 8 20 9 21 10 2 11 1 12 22 13
REMARK SMILES IDX 23 14 24 15 25 16 26 17 31 18 27 19 30 20 28 21 32 22 29 23
REMARK SMILES IDX 10 24 11 26 12 27 17 28 13 29 15 30 14 31 18 32 16 33
REMARK H PARENT 10 25
ROOT
ATOM      1  C   UNL     1       1.867 -11.206 -45.198  1.00  0.00     0.163 A 
ATOM      2  C   UNL     1       2.805 -12.190 -45.517  1.00  0.00     0.079 A 
ATOM      3  C   UNL     1       2.773 -13.456 -44.934  1.00  0.00     0.080 A 
ATOM      4  N   UNL     1       3.711 -14.336 -45.290  1.00  0.00    -0.236 NA
ATOM      5  C   UNL     1       3.661 -15.539 -44.707  1.00  0.00     0.224 A 
ATOM      6  N   UNL     1       2.759 -15.947 -43.810  1.00  0.00    -0.219 NA
ATOM      7  C   UNL     1       1.805 -15.063 -43.466  1.00  0.00     0.141 A 
ATOM      8  C   UNL     1       1.770 -13.759 -43.999  1.00  0.00     0.047 A 
ATOM      9  C   UNL     1       0.826 -12.766 -43.653  1.00  0.00     0.065 A 
ATOM     10  C   UNL     1       0.877 -11.517 -44.267  1.00  0.00     0.175 A 
ENDROOT
BRANCH   1  11
ATOM     11  O   UNL     1       1.839  -9.937 -45.710  1.00  0.00    -0.493 OA
ATOM     12  C   UNL     1       3.035  -9.174 -45.617  1.00  0.00     0.278 C 
ENDBRANCH   1  11
BRANCH  10  13
ATOM     13  O   UNL     1      -0.057 -10.550 -43.891  1.00  0.00    -0.406 OA
BRANCH  13  14
ATOM     14  C   UNL     1      -1.177 -10.527 -44.718  1.00  0.00     0.415 C 
ATOM     15  O   UNL     1      -1.509 -11.450 -45.458  1.00  0.00    -0.224 OA
BRANCH  14  16
ATOM     16  N   UNL     1      -1.899  -9.351 -44.594  1.00  0.00    -0.303 N 
ATOM     17  C   UNL     1      -2.972  -9.265 -43.612  1.00  0.00     0.139 C 
ATOM     18  C   UNL     1      -1.824  -8.248 -45.568  1.00  0.00     0.099 C 
ATOM     19  C   UNL     1      -4.341  -9.030 -44.286  1.00  0.00     0.106 C 
ATOM     20  C   UNL     1      -3.080  -7.331 -45.509  1.00  0.00     0.109 C 
ATOM     21  N   UNL     1      -4.318  -8.123 -45.455  1.00  0.00    -0.303 NA
ATOM     22  C   UNL     1      -0.564  -7.406 -45.352  1.00  0.00     0.032 C 
ATOM     23  C   UNL     1      -5.508  -7.283 -45.509  1.00  0.00     0.105 C 
ENDBRANCH  14  16
ENDBRANCH  13  14
ENDBRANCH  10  13
BRANCH   7  24
ATOM     24  N   UNL     1       0.800 -15.453 -42.543  1.00  0.00    -0.337 N 
ATOM     25  H   UNL     1       0.270 -14.632 -42.252  1.00  0.00     0.168 HD
BRANCH  24  26
ATOM     26  C   UNL     1      -0.046 -16.588 -42.593  1.00  0.00     0.077 A 
ATOM     27  C   UNL     1      -1.191 -16.648 -43.397  1.00  0.00     0.029 A 
ATOM     28  C   UNL     1       0.330 -17.751 -41.900  1.00  0.00     0.165 A 
ATOM     29  C   UNL     1      -1.963 -17.813 -43.464  1.00  0.00     0.004 A 
ATOM     30  C   UNL     1      -0.435 -18.915 -41.964  1.00  0.00     0.078 A 
ATOM     31  C   UNL     1      -1.588 -18.947 -42.744  1.00  0.00     0.024 A 
ATOM     32  F   UNL     1       1.451 -17.718 -41.156  1.00  0.00    -0.203 F 
ATOM     33  Cl  UNL     1       0.035 -20.323 -41.090  1.00  0.00    -0.081 Cl
ENDBRANCH  24  26
ENDBRANCH   7  24
TORSDOF 6
ENDMDL
MODEL 17
REMARK VINA RESULT:    -8.382      3.547      4.712
REMARK INTER + INTRA:         -11.734
REMARK INTER:                  -9.842
REMARK INTRA:                  -1.892
REMARK UNBOUND:                -0.412
REMARK SMILES COc1cc2ncnc(Nc3cccc(Cl)c3F)c2cc1OC(=O)N1CCN(C)C[C@H]1C
REMARK SMILES IDX 3 1 4 2 5 3 6 4 7 5 8 6 9 7 19 8 20 9 21 10 2 11 1 12 22 13
REMARK SMILES IDX 23 14 24 15 25 16 26 17 31 18 27 19 30 20 28 21 32 22 29 23
REMARK SMILES IDX 10 24 11 26 12 27 17 28 13 29 15 30 14 31 18 32 16 33
REMARK H PARENT 10 25
ROOT
ATOM      1  C   UNL     1       0.046 -15.537 -44.020  1.00  0.00     0.163 A 
ATOM      2  C   UNL     1      -0.886 -16.489 -43.605  1.00  0.00     0.079 A 
ATOM      3  C   UNL     1      -0.562 -17.492 -42.692  1.00  0.00     0.080 A 
ATOM      4  N   UNL     1      -1.512 -18.366 -42.354  1.00  0.00    -0.236 NA
ATOM      5  C   UNL     1      -1.169 -19.322 -41.483  1.00  0.00     0.224 A 
ATOM      6  N   UNL     1       0.030 -19.481 -40.915  1.00  0.00    -0.219 NA
ATOM      7  C   UNL     1       0.980 -18.588 -41.245  1.00  0.00     0.141 A 
ATOM      8  C   UNL     1       0.740 -17.551 -42.168  1.00  0.00     0.047 A 
ATOM      9  C   UNL     1       1.699 -16.605 -42.594  1.00  0.00     0.065 A 
ATOM     10  C   UNL     1       1.336 -15.607 -43.494  1.00  0.00     0.175 A 
ENDROOT
BRANCH   1  11
ATOM     11  O   UNL     1      -0.186 -14.535 -44.922  1.00  0.00    -0.493 OA
ATOM     12  C   UNL     1      -0.326 -14.911 -46.286  1.00  0.00     0.278 C 
ENDBRANCH   1  11
BRANCH  10  13
ATOM     13  O   UNL     1       2.311 -14.698 -43.912  1.00  0.00    -0.406 OA
BRANCH  13  14
ATOM     14  C   UNL     1       3.202 -15.243 -44.831  1.00  0.00     0.415 C 
ATOM     15  O   UNL     1       2.878 -15.691 -45.928  1.00  0.00    -0.224 OA
BRANCH  14  16
ATOM     16  N   UNL     1       4.513 -15.199 -44.382  1.00  0.00    -0.303 N 
ATOM     17  C   UNL     1       4.926 -14.145 -43.466  1.00  0.00     0.139 C 
ATOM     18  C   UNL     1       5.596 -16.008 -44.968  1.00  0.00     0.099 C 
ATOM     19  C   UNL     1       6.011 -13.242 -44.091  1.00  0.00     0.106 C 
ATOM     20  C   UNL     1       6.999 -15.397 -44.683  1.00  0.00     0.109 C 
ATOM     21  N   UNL     1       7.011 -13.946 -44.923  1.00  0.00    -0.303 NA
ATOM     22  C   UNL     1       5.550 -17.448 -44.453  1.00  0.00     0.032 C 
ATOM     23  C   UNL     1       8.343 -13.375 -44.767  1.00  0.00     0.105 C 
ENDBRANCH  14  16
ENDBRANCH  13  14
ENDBRANCH  10  13
BRANCH   7  24
ATOM     24  N   UNL     1       2.263 -18.688 -40.645  1.00  0.00    -0.337 N 
ATOM     25  H   UNL     1       2.156 -18.886 -39.650  1.00  0.00     0.168 HD
BRANCH  24  26
ATOM     26  C   UNL     1       3.421 -19.329 -41.149  1.00  0.00     0.077 A 
ATOM     27  C   UNL     1       3.365 -20.411 -42.036  1.00  0.00     0.029 A 
ATOM     28  C   UNL     1       4.683 -18.795 -40.845  1.00  0.00     0.165 A 
ATOM     29  C   UNL     1       4.535 -20.974 -42.559  1.00  0.00     0.004 A 
ATOM     30  C   UNL     1       5.853 -19.351 -41.364  1.00  0.00     0.078 A 
ATOM     31  C   UNL     1       5.781 -20.447 -42.219  1.00  0.00     0.024 A 
ATOM     32  F   UNL     1       4.747 -17.729 -40.026  1.00  0.00    -0.203 F 
ATOM     33  Cl  UNL     1       7.392 -18.691 -40.961  1.00  0.00    -0.081 Cl
ENDBRANCH  24  26
ENDBRANCH   7  24
TORSDOF 6
ENDMDL
MODEL 18
REMARK VINA RESULT:    -8.348      4.467      7.809
REMARK INTER + INTRA:         -11.689
REMARK INTER:                 -11.008
REMARK INTRA:                  -0.681
REMARK UNBOUND:                -0.412
REMARK SMILES COc1cc2ncnc(Nc3cccc(Cl)c3F)c2cc1OC(=O)N1CCN(C)C[C@H]1C
REMARK SMILES IDX 3 1 4 2 5 3 6 4 7 5 8 6 9 7 19 8 20 9 21 10 2 11 1 12 22 13
REMARK SMILES IDX 23 14 24 15 25 16 26 17 31 18 27 19 30 20 28 21 32 22 29 23
REMARK SMILES IDX 10 24 11 26 12 27 17 28 13 29 15 30 14 31 18 32 16 33
REMARK H PARENT 10 25
ROOT
ATOM      1  C   UNL     1       1.184 -10.421 -45.186  1.00  0.00     0.163 A 
ATOM      2  C   UNL     1       2.258 -11.262 -45.487  1.00  0.00     0.079 A 
ATOM      3  C   UNL     1       2.330 -12.568 -45.005  1.00  0.00     0.080 A 
ATOM      4  N   UNL     1       3.395 -13.302 -45.335  1.00  0.00    -0.236 NA
ATOM      5  C   UNL     1       3.442 -14.548 -44.851  1.00  0.00     0.224 A 
ATOM      6  N   UNL     1       2.523 -15.130 -44.077  1.00  0.00    -0.219 NA
ATOM      7  C   UNL     1       1.442 -14.393 -43.760  1.00  0.00     0.141 A 
ATOM      8  C   UNL     1       1.296 -13.061 -44.195  1.00  0.00     0.047 A 
ATOM      9  C   UNL     1       0.212 -12.216 -43.867  1.00  0.00     0.065 A 
ATOM     10  C   UNL     1       0.163 -10.922 -44.379  1.00  0.00     0.175 A 
ENDROOT
BRANCH   1  11
ATOM     11  O   UNL     1       1.046  -9.125 -45.603  1.00  0.00    -0.493 OA
ATOM     12  C   UNL     1       2.108  -8.230 -45.299  1.00  0.00     0.278 C 
ENDBRANCH   1  11
BRANCH  10  13
ATOM     13  O   UNL     1      -0.910 -10.103 -44.022  1.00  0.00    -0.406 OA
BRANCH  13  14
ATOM     14  C   UNL     1      -1.992 -10.219 -44.889  1.00  0.00     0.415 C 
ATOM     15  O   UNL     1      -2.116 -11.110 -45.726  1.00  0.00    -0.224 OA
BRANCH  14  16
ATOM     16  N   UNL     1      -2.939  -9.227 -44.686  1.00  0.00    -0.303 N 
ATOM     17  C   UNL     1      -3.357  -8.391 -45.803  1.00  0.00     0.139 C 
ATOM     18  C   UNL     1      -3.376  -8.788 -43.350  1.00  0.00     0.099 C 
ATOM     19  C   UNL     1      -3.000  -6.908 -45.566  1.00  0.00     0.106 C 
ATOM     20  C   UNL     1      -3.990  -7.358 -43.378  1.00  0.00     0.109 C 
ATOM     21  N   UNL     1      -3.165  -6.436 -44.173  1.00  0.00    -0.303 NA
ATOM     22  C   UNL     1      -4.388  -9.768 -42.750  1.00  0.00     0.032 C 
ATOM     23  C   UNL     1      -3.665  -5.069 -44.121  1.00  0.00     0.105 C 
ENDBRANCH  14  16
ENDBRANCH  13  14
ENDBRANCH  10  13
BRANCH   7  24
ATOM     24  N   UNL     1       0.417 -14.973 -42.967  1.00  0.00    -0.337 N 
ATOM     25  H   UNL     1      -0.478 -14.550 -43.210  1.00  0.00     0.168 HD
BRANCH  24  26
ATOM     26  C   UNL     1       0.237 -16.335 -42.624  1.00  0.00     0.077 A 
ATOM     27  C   UNL     1       1.161 -17.054 -41.854  1.00  0.00     0.029 A 
ATOM     28  C   UNL     1      -0.967 -16.972 -42.965  1.00  0.00     0.165 A 
ATOM     29  C   UNL     1       0.912 -18.380 -41.485  1.00  0.00     0.004 A 
ATOM     30  C   UNL     1      -1.221 -18.294 -42.599  1.00  0.00     0.078 A 
ATOM     31  C   UNL     1      -0.277 -19.004 -41.861  1.00  0.00     0.024 A 
ATOM     32  F   UNL     1      -1.880 -16.279 -43.670  1.00  0.00    -0.203 F 
ATOM     33  Cl  UNL     1      -2.697 -19.060 -43.046  1.00  0.00    -0.081 Cl
ENDBRANCH  24  26
ENDBRANCH   7  24
TORSDOF 6
ENDMDL
MODEL 19
REMARK VINA RESULT:    -8.326      3.986      6.709
REMARK INTER + INTRA:         -11.658
REMARK INTER:                  -9.945
REMARK INTRA:                  -1.713
REMARK UNBOUND:                -0.412
REMARK SMILES COc1cc2ncnc(Nc3cccc(Cl)c3F)c2cc1OC(=O)N1CCN(C)C[C@H]1C
REMARK SMILES IDX 3 1 4 2 5 3 6 4 7 5 8 6 9 7 19 8 20 9 21 10 2 11 1 12 22 13
REMARK SMILES IDX 23 14 24 15 25 16 26 17 31 18 27 19 30 20 28 21 32 22 29 23
REMARK SMILES IDX 10 24 11 26 12 27 17 28 13 29 15 30 14 31 18 32 16 33
REMARK H PARENT 10 25
ROOT
ATOM      1  C   UNL     1       6.356 -16.072 -44.201  1.00  0.00     0.163 A 
ATOM      2  C   UNL     1       7.005 -17.180 -43.654  1.00  0.00     0.079 A 
ATOM      3  C   UNL     1       6.403 -17.987 -42.689  1.00  0.00     0.080 A 
ATOM      4  N   UNL     1       7.097 -19.024 -42.214  1.00  0.00    -0.236 NA
ATOM      5  C   UNL     1       6.497 -19.774 -41.283  1.00  0.00     0.224 A 
ATOM      6  N   UNL     1       5.269 -19.591 -40.790  1.00  0.00    -0.219 NA
ATOM      7  C   UNL     1       4.567 -18.555 -41.283  1.00  0.00     0.141 A 
ATOM      8  C   UNL     1       5.104 -17.684 -42.251  1.00  0.00     0.047 A 
ATOM      9  C   UNL     1       4.442 -16.554 -42.783  1.00  0.00     0.065 A 
ATOM     10  C   UNL     1       5.067 -15.780 -43.756  1.00  0.00     0.175 A 
ENDROOT
BRANCH   1  11
ATOM     11  O   UNL     1       6.882 -15.222 -45.135  1.00  0.00    -0.493 OA
ATOM     12  C   UNL     1       7.933 -14.363 -44.712  1.00  0.00     0.278 C 
ENDBRANCH   1  11
BRANCH  10  13
ATOM     13  O   UNL     1       4.396 -14.658 -44.249  1.00  0.00    -0.406 OA
BRANCH  13  14
ATOM     14  C   UNL     1       3.412 -14.980 -45.179  1.00  0.00     0.415 C 
ATOM     15  O   UNL     1       3.493 -15.908 -45.979  1.00  0.00    -0.224 OA
BRANCH  14  16
ATOM     16  N   UNL     1       2.306 -14.150 -45.083  1.00  0.00    -0.303 N 
ATOM     17  C   UNL     1       2.255 -12.924 -45.867  1.00  0.00     0.139 C 
ATOM     18  C   UNL     1       1.273 -14.296 -44.042  1.00  0.00     0.099 C 
ATOM     19  C   UNL     1       2.203 -11.673 -44.964  1.00  0.00     0.106 C 
ATOM     20  C   UNL     1       0.481 -12.974 -43.818  1.00  0.00     0.109 C 
ATOM     21  N   UNL     1       1.383 -11.816 -43.740  1.00  0.00    -0.303 NA
ATOM     22  C   UNL     1       0.299 -15.425 -44.385  1.00  0.00     0.032 C 
ATOM     23  C   UNL     1       0.670 -10.585 -43.422  1.00  0.00     0.105 C 
ENDBRANCH  14  16
ENDBRANCH  13  14
ENDBRANCH  10  13
BRANCH   7  24
ATOM     24  N   UNL     1       3.243 -18.333 -40.820  1.00  0.00    -0.337 N 
ATOM     25  H   UNL     1       3.078 -17.330 -40.737  1.00  0.00     0.168 HD
BRANCH  24  26
ATOM     26  C   UNL     1       2.054 -18.994 -41.210  1.00  0.00     0.077 A 
ATOM     27  C   UNL     1       1.897 -20.384 -41.136  1.00  0.00     0.029 A 
ATOM     28  C   UNL     1       0.936 -18.228 -41.580  1.00  0.00     0.165 A 
ATOM     29  C   UNL     1       0.682 -20.991 -41.472  1.00  0.00     0.004 A 
ATOM     30  C   UNL     1      -0.278 -18.827 -41.915  1.00  0.00     0.078 A 
ATOM     31  C   UNL     1      -0.406 -20.213 -41.867  1.00  0.00     0.024 A 
ATOM     32  F   UNL     1       1.062 -16.889 -41.616  1.00  0.00    -0.203 F 
ATOM     33  Cl  UNL     1      -1.629 -17.868 -42.385  1.00  0.00    -0.081 Cl
ENDBRANCH  24  26
ENDBRANCH   7  24
TORSDOF 6
ENDMDL
MODEL 20
REMARK VINA RESULT:    -8.267      4.006      6.823
REMARK INTER + INTRA:         -11.579
REMARK INTER:                 -10.057
REMARK INTRA:                  -1.522
REMARK UNBOUND:                -0.412
REMARK SMILES COc1cc2ncnc(Nc3cccc(Cl)c3F)c2cc1OC(=O)N1CCN(C)C[C@H]1C
REMARK SMILES IDX 3 1 4 2 5 3 6 4 7 5 8 6 9 7 19 8 20 9 21 10 2 11 1 12 22 13
REMARK SMILES IDX 23 14 24 15 25 16 26 17 31 18 27 19 30 20 28 21 32 22 29 23
REMARK SMILES IDX 10 24 11 26 12 27 17 28 13 29 15 30 14 31 18 32 16 33
REMARK H PARENT 10 25
ROOT
ATOM      1  C   UNL     1       6.405 -16.557 -43.952  1.00  0.00     0.163 A 
ATOM      2  C   UNL     1       7.131 -17.277 -43.002  1.00  0.00     0.079 A 
ATOM      3  C   UNL     1       6.529 -17.815 -41.865  1.00  0.00     0.080 A 
ATOM      4  N   UNL     1       7.298 -18.483 -41.003  1.00  0.00    -0.236 NA
ATOM      5  C   UNL     1       6.695 -18.979 -39.917  1.00  0.00     0.224 A 
ATOM      6  N   UNL     1       5.398 -18.877 -39.616  1.00  0.00    -0.219 NA
ATOM      7  C   UNL     1       4.623 -18.217 -40.496  1.00  0.00     0.141 A 
ATOM      8  C   UNL     1       5.152 -17.633 -41.664  1.00  0.00     0.047 A 
ATOM      9  C   UNL     1       4.408 -16.891 -42.608  1.00  0.00     0.065 A 
ATOM     10  C   UNL     1       5.038 -16.382 -43.741  1.00  0.00     0.175 A 
ENDROOT
BRANCH   1  11
ATOM     11  O   UNL     1       6.921 -15.984 -45.082  1.00  0.00    -0.493 OA
ATOM     12  C   UNL     1       8.255 -16.329 -45.433  1.00  0.00     0.278 C 
ENDBRANCH   1  11
BRANCH  10  13
ATOM     13  O   UNL     1       4.281 -15.636 -44.648  1.00  0.00    -0.406 OA
BRANCH  13  14
ATOM     14  C   UNL     1       3.808 -14.444 -44.107  1.00  0.00     0.415 C 
ATOM     15  O   UNL     1       4.436 -13.745 -43.317  1.00  0.00    -0.224 OA
BRANCH  14  16
ATOM     16  N   UNL     1       2.548 -14.114 -44.582  1.00  0.00    -0.303 N 
ATOM     17  C   UNL     1       1.372 -14.757 -44.013  1.00  0.00     0.139 C 
ATOM     18  C   UNL     1       2.327 -13.332 -45.811  1.00  0.00     0.099 C 
ATOM     19  C   UNL     1       0.613 -15.590 -45.068  1.00  0.00     0.106 C 
ATOM     20  C   UNL     1       0.906 -13.565 -46.403  1.00  0.00     0.109 C 
ATOM     21  N   UNL     1       0.562 -14.994 -46.421  1.00  0.00    -0.303 NA
ATOM     22  C   UNL     1       2.539 -11.837 -45.559  1.00  0.00     0.032 C 
ATOM     23  C   UNL     1      -0.719 -15.241 -47.071  1.00  0.00     0.105 C 
ENDBRANCH  14  16
ENDBRANCH  13  14
ENDBRANCH  10  13
BRANCH   7  24
ATOM     24  N   UNL     1       3.230 -18.107 -40.244  1.00  0.00    -0.337 N 
ATOM     25  H   UNL     1       2.962 -17.123 -40.251  1.00  0.00     0.168 HD
BRANCH  24  26
ATOM     26  C   UNL     1       2.179 -18.903 -40.760  1.00  0.00     0.077 A 
ATOM     27  C   UNL     1       2.136 -20.295 -40.610  1.00  0.00     0.029 A 
ATOM     28  C   UNL     1       1.070 -18.273 -41.348  1.00  0.00     0.165 A 
ATOM     29  C   UNL     1       1.046 -21.037 -41.081  1.00  0.00     0.004 A 
ATOM     30  C   UNL     1      -0.020 -19.006 -41.818  1.00  0.00     0.078 A 
ATOM     31  C   UNL     1      -0.031 -20.393 -41.690  1.00  0.00     0.024 A 
ATOM     32  F   UNL     1       1.081 -16.932 -41.460  1.00  0.00    -0.203 F 
ATOM     33  Cl  UNL     1      -1.360 -18.213 -42.553  1.00  0.00    -0.081 Cl
ENDBRANCH  24  26
ENDBRANCH   7  24
TORSDOF 6
ENDMDL
