MODEL 1
REMARK VINA RESULT:    -8.314      0.000      0.000
REMARK INTER + INTRA:         -13.217
REMARK INTER:                 -12.202
REMARK INTRA:                  -1.015
REMARK UNBOUND:                -1.015
REMARK SMILES COc1cc2c(Oc3ccc4[nH]c(C)cc4c3F)ncnc2cc1OCCCN1CCCC1
REMARK SMILES IDX 25 1 24 2 3 3 4 4 5 5 23 6 6 7 22 8 19 9 21 10 20 11 2 12
REMARK SMILES IDX 1 13 7 14 8 15 9 16 17 17 10 18 16 19 11 20 15 21 12 22
REMARK SMILES IDX 13 23 18 24 14 26 26 27 27 28 28 29 29 30 30 31 33 32 31 33
REMARK SMILES IDX 32 34
REMARK H PARENT 12 25
ROOT
ATOM      1  O   UNL     1       2.032  -9.308 -44.557  1.00  0.00    -0.490 OA
ENDROOT
BRANCH   1   2
ATOM      2  C   UNL     1       1.679 -10.634 -44.555  1.00  0.00     0.163 A 
ATOM      3  C   UNL     1       0.578 -10.978 -43.755  1.00  0.00     0.161 A 
ATOM      4  C   UNL     1       0.160 -12.308 -43.715  1.00  0.00     0.066 A 
ATOM      5  C   UNL     1       0.832 -13.295 -44.477  1.00  0.00     0.067 A 
ATOM      6  C   UNL     1       2.320 -11.619 -45.314  1.00  0.00     0.079 A 
ATOM      7  C   UNL     1       0.499 -14.651 -44.507  1.00  0.00     0.230 A 
ATOM      8  C   UNL     1       1.917 -12.947 -45.284  1.00  0.00     0.081 A 
ATOM      9  N   UNL     1       1.161 -15.584 -45.221  1.00  0.00    -0.201 NA
ATOM     10  N   UNL     1       2.582 -13.844 -46.024  1.00  0.00    -0.236 NA
ATOM     11  C   UNL     1       2.170 -15.119 -45.960  1.00  0.00     0.226 A 
BRANCH   3  12
ATOM     12  O   UNL     1      -0.001  -9.956 -43.046  1.00  0.00    -0.493 OA
ATOM     13  C   UNL     1      -1.321  -9.570 -43.402  1.00  0.00     0.278 C 
ENDBRANCH   3  12
BRANCH   7  14
ATOM     14  O   UNL     1      -0.542 -15.072 -43.682  1.00  0.00    -0.435 OA
BRANCH  14  15
ATOM     15  C   UNL     1      -0.387 -16.310 -43.105  1.00  0.00     0.165 A 
ATOM     16  C   UNL     1       0.743 -16.528 -42.319  1.00  0.00     0.052 A 
ATOM     17  C   UNL     1      -1.371 -17.299 -43.235  1.00  0.00     0.175 A 
ATOM     18  C   UNL     1       0.939 -17.754 -41.671  1.00  0.00     0.031 A 
ATOM     19  C   UNL     1      -1.197 -18.538 -42.593  1.00  0.00     0.039 A 
ATOM     20  C   UNL     1      -0.047 -18.739 -41.828  1.00  0.00     0.049 A 
ATOM     21  C   UNL     1      -1.963 -19.734 -42.516  1.00  0.00     0.034 A 
ATOM     22  N   UNL     1      -0.119 -20.014 -41.317  1.00  0.00    -0.359 N 
ATOM     23  C   UNL     1      -1.278 -20.631 -41.723  1.00  0.00     0.013 A 
ATOM     24  F   UNL     1      -2.481 -17.058 -43.949  1.00  0.00    -0.202 F 
ATOM     25  H   UNL     1       0.586 -20.434 -40.726  1.00  0.00     0.166 HD
ATOM     26  C   UNL     1      -1.611 -22.017 -41.312  1.00  0.00     0.064 C 
ENDBRANCH  14  15
ENDBRANCH   7  14
ENDBRANCH   1   2
BRANCH   1  27
ATOM     27  C   UNL     1       2.303  -8.664 -45.801  1.00  0.00     0.231 C 
BRANCH  27  28
ATOM     28  C   UNL     1       3.710  -8.080 -45.882  1.00  0.00     0.057 C 
BRANCH  28  29
ATOM     29  C   UNL     1       4.871  -9.063 -45.674  1.00  0.00     0.088 C 
BRANCH  29  30
ATOM     30  N   UNL     1       5.349  -9.149 -44.288  1.00  0.00    -0.303 NA
ATOM     31  C   UNL     1       6.790  -9.424 -44.190  1.00  0.00     0.084 C 
ATOM     32  C   UNL     1       5.189  -7.865 -43.595  1.00  0.00     0.084 C 
ATOM     33  C   UNL     1       7.151  -8.989 -42.774  1.00  0.00     0.017 C 
ATOM     34  C   UNL     1       6.040  -8.039 -42.350  1.00  0.00     0.017 C 
ENDBRANCH  29  30
ENDBRANCH  28  29
ENDBRANCH  27  28
ENDBRANCH   1  27
TORSDOF 8
ENDMDL
MODEL 2
REMARK VINA RESULT:    -8.175      2.950      5.499
REMARK INTER + INTRA:         -13.013
REMARK INTER:                 -12.023
REMARK INTRA:                  -0.989
REMARK UNBOUND:                -1.015
REMARK SMILES COc1cc2c(Oc3ccc4[nH]c(C)cc4c3F)ncnc2cc1OCCCN1CCCC1
REMARK SMILES IDX 25 1 24 2 3 3 4 4 5 5 23 6 6 7 22 8 19 9 21 10 20 11 2 12
REMARK SMILES IDX 1 13 7 14 8 15 9 16 17 17 10 18 16 19 11 20 15 21 12 22
REMARK SMILES IDX 13 23 18 24 14 26 26 27 27 28 28 29 29 30 30 31 33 32 31 33
REMARK SMILES IDX 32 34
REMARK H PARENT 12 25
ROOT
ATOM      1  O   UNL     1      -1.154  -8.725 -45.386  1.00  0.00    -0.490 OA
ENDROOT
BRANCH   1   2
ATOM      2  C   UNL     1      -0.349  -9.829 -45.515  1.00  0.00     0.163 A 
ATOM      3  C   UNL     1      -0.983 -11.009 -45.934  1.00  0.00     0.161 A 
ATOM      4  C   UNL     1      -0.220 -12.166 -46.095  1.00  0.00     0.066 A 
ATOM      5  C   UNL     1       1.174 -12.148 -45.846  1.00  0.00     0.067 A 
ATOM      6  C   UNL     1       1.032  -9.825 -45.290  1.00  0.00     0.079 A 
ATOM      7  C   UNL     1       2.027 -13.247 -45.972  1.00  0.00     0.230 A 
ATOM      8  C   UNL     1       1.804 -10.968 -45.444  1.00  0.00     0.081 A 
ATOM      9  N   UNL     1       3.350 -13.219 -45.711  1.00  0.00    -0.201 NA
ATOM     10  N   UNL     1       3.120 -10.901 -45.199  1.00  0.00    -0.236 NA
ATOM     11  C   UNL     1       3.830 -12.029 -45.349  1.00  0.00     0.226 A 
BRANCH   3  12
ATOM     12  O   UNL     1      -2.336 -10.932 -46.140  1.00  0.00    -0.493 OA
ATOM     13  C   UNL     1      -2.793 -10.765 -47.475  1.00  0.00     0.278 C 
ENDBRANCH   3  12
BRANCH   7  14
ATOM     14  O   UNL     1       1.451 -14.467 -46.319  1.00  0.00    -0.435 OA
BRANCH  14  15
ATOM     15  C   UNL     1       0.964 -15.218 -45.275  1.00  0.00     0.165 A 
ATOM     16  C   UNL     1       1.721 -15.281 -44.107  1.00  0.00     0.052 A 
ATOM     17  C   UNL     1      -0.291 -15.836 -45.351  1.00  0.00     0.175 A 
ATOM     18  C   UNL     1       1.261 -15.995 -42.994  1.00  0.00     0.031 A 
ATOM     19  C   UNL     1      -0.775 -16.559 -44.246  1.00  0.00     0.039 A 
ATOM     20  C   UNL     1       0.011 -16.624 -43.094  1.00  0.00     0.049 A 
ATOM     21  C   UNL     1      -1.963 -17.296 -43.982  1.00  0.00     0.034 A 
ATOM     22  N   UNL     1      -0.679 -17.381 -42.175  1.00  0.00    -0.359 N 
ATOM     23  C   UNL     1      -1.882 -17.794 -42.698  1.00  0.00     0.013 A 
ATOM     24  F   UNL     1      -1.035 -15.721 -46.461  1.00  0.00    -0.202 F 
ATOM     25  H   UNL     1      -0.345 -17.600 -41.248  1.00  0.00     0.166 HD
ATOM     26  C   UNL     1      -2.830 -18.624 -41.916  1.00  0.00     0.064 C 
ENDBRANCH  14  15
ENDBRANCH   7  14
ENDBRANCH   1   2
BRANCH   1  27
ATOM     27  C   UNL     1      -1.252  -8.084 -44.115  1.00  0.00     0.231 C 
BRANCH  27  28
ATOM     28  C   UNL     1      -2.677  -7.673 -43.757  1.00  0.00     0.057 C 
BRANCH  28  29
ATOM     29  C   UNL     1      -3.778  -8.101 -44.738  1.00  0.00     0.088 C 
BRANCH  29  30
ATOM     30  N   UNL     1      -4.808  -8.967 -44.151  1.00  0.00    -0.303 NA
ATOM     31  C   UNL     1      -4.346 -10.345 -43.926  1.00  0.00     0.084 C 
ATOM     32  C   UNL     1      -5.187  -8.502 -42.811  1.00  0.00     0.084 C 
ATOM     33  C   UNL     1      -5.332 -10.900 -42.905  1.00  0.00     0.017 C 
ATOM     34  C   UNL     1      -5.956  -9.681 -42.243  1.00  0.00     0.017 C 
ENDBRANCH  29  30
ENDBRANCH  28  29
ENDBRANCH  27  28
ENDBRANCH   1  27
TORSDOF 8
ENDMDL
MODEL 3
REMARK VINA RESULT:    -7.909      4.860      6.822
REMARK INTER + INTRA:         -12.622
REMARK INTER:                 -10.579
REMARK INTRA:                  -2.043
REMARK UNBOUND:                -1.015
REMARK SMILES COc1cc2c(Oc3ccc4[nH]c(C)cc4c3F)ncnc2cc1OCCCN1CCCC1
REMARK SMILES IDX 25 1 24 2 3 3 4 4 5 5 23 6 6 7 22 8 19 9 21 10 20 11 2 12
REMARK SMILES IDX 1 13 7 14 8 15 9 16 17 17 10 18 16 19 11 20 15 21 12 22
REMARK SMILES IDX 13 23 18 24 14 26 26 27 27 28 28 29 29 30 30 31 33 32 31 33
REMARK SMILES IDX 32 34
REMARK H PARENT 12 25
ROOT
ATOM      1  O   UNL     1       8.763 -16.152 -43.623  1.00  0.00    -0.490 OA
ENDROOT
BRANCH   1   2
ATOM      2  C   UNL     1       7.815 -17.012 -43.128  1.00  0.00     0.163 A 
ATOM      3  C   UNL     1       6.952 -16.485 -42.154  1.00  0.00     0.161 A 
ATOM      4  C   UNL     1       5.960 -17.303 -41.615  1.00  0.00     0.066 A 
ATOM      5  C   UNL     1       5.820 -18.644 -42.050  1.00  0.00     0.067 A 
ATOM      6  C   UNL     1       7.652 -18.333 -43.557  1.00  0.00     0.079 A 
ATOM      7  C   UNL     1       4.866 -19.547 -41.575  1.00  0.00     0.230 A 
ATOM      8  C   UNL     1       6.671 -19.161 -43.030  1.00  0.00     0.081 A 
ATOM      9  N   UNL     1       4.759 -20.828 -41.984  1.00  0.00    -0.201 NA
ATOM     10  N   UNL     1       6.575 -20.422 -43.474  1.00  0.00    -0.236 NA
ATOM     11  C   UNL     1       5.621 -21.193 -42.932  1.00  0.00     0.226 A 
BRANCH   3  12
ATOM     12  O   UNL     1       7.171 -15.181 -41.790  1.00  0.00    -0.493 OA
ATOM     13  C   UNL     1       6.252 -14.202 -42.253  1.00  0.00     0.278 C 
ENDBRANCH   3  12
BRANCH   7  14
ATOM     14  O   UNL     1       4.021 -19.108 -40.558  1.00  0.00    -0.435 OA
BRANCH  14  15
ATOM     15  C   UNL     1       2.736 -18.802 -40.937  1.00  0.00     0.165 A 
ATOM     16  C   UNL     1       2.500 -17.546 -41.492  1.00  0.00     0.052 A 
ATOM     17  C   UNL     1       1.707 -19.749 -40.845  1.00  0.00     0.175 A 
ATOM     18  C   UNL     1       1.221 -17.188 -41.936  1.00  0.00     0.031 A 
ATOM     19  C   UNL     1       0.414 -19.413 -41.284  1.00  0.00     0.039 A 
ATOM     20  C   UNL     1       0.200 -18.141 -41.817  1.00  0.00     0.049 A 
ATOM     21  C   UNL     1      -0.830 -20.101 -41.331  1.00  0.00     0.034 A 
ATOM     22  N   UNL     1      -1.130 -18.068 -42.165  1.00  0.00    -0.359 N 
ATOM     23  C   UNL     1      -1.768 -19.251 -41.879  1.00  0.00     0.013 A 
ATOM     24  F   UNL     1       1.959 -20.975 -40.360  1.00  0.00    -0.202 F 
ATOM     25  H   UNL     1      -1.570 -17.255 -42.573  1.00  0.00     0.166 HD
ATOM     26  C   UNL     1      -3.212 -19.447 -42.158  1.00  0.00     0.064 C 
ENDBRANCH  14  15
ENDBRANCH   7  14
ENDBRANCH   1   2
BRANCH   1  27
ATOM     27  C   UNL     1       8.926 -16.040 -45.036  1.00  0.00     0.231 C 
BRANCH  27  28
ATOM     28  C   UNL     1       7.833 -15.211 -45.703  1.00  0.00     0.057 C 
BRANCH  28  29
ATOM     29  C   UNL     1       6.773 -15.989 -46.496  1.00  0.00     0.088 C 
BRANCH  29  30
ATOM     30  N   UNL     1       5.391 -15.572 -46.227  1.00  0.00    -0.303 NA
ATOM     31  C   UNL     1       4.753 -16.345 -45.152  1.00  0.00     0.084 C 
ATOM     32  C   UNL     1       5.343 -14.188 -45.739  1.00  0.00     0.084 C 
ATOM     33  C   UNL     1       3.585 -15.469 -44.713  1.00  0.00     0.017 C 
ATOM     34  C   UNL     1       3.933 -14.066 -45.190  1.00  0.00     0.017 C 
ENDBRANCH  29  30
ENDBRANCH  28  29
ENDBRANCH  27  28
ENDBRANCH   1  27
TORSDOF 8
ENDMDL
MODEL 4
REMARK VINA RESULT:    -7.889      4.427      6.063
REMARK INTER + INTRA:         -12.594
REMARK INTER:                 -11.363
REMARK INTRA:                  -1.231
REMARK UNBOUND:                -1.015
REMARK SMILES COc1cc2c(Oc3ccc4[nH]c(C)cc4c3F)ncnc2cc1OCCCN1CCCC1
REMARK SMILES IDX 25 1 24 2 3 3 4 4 5 5 23 6 6 7 22 8 19 9 21 10 20 11 2 12
REMARK SMILES IDX 1 13 7 14 8 15 9 16 17 17 10 18 16 19 11 20 15 21 12 22
REMARK SMILES IDX 13 23 18 24 14 26 26 27 27 28 28 29 29 30 30 31 33 32 31 33
REMARK SMILES IDX 32 34
REMARK H PARENT 12 25
ROOT
ATOM      1  O   UNL     1       7.062 -15.564 -44.401  1.00  0.00    -0.490 OA
ENDROOT
BRANCH   1   2
ATOM      2  C   UNL     1       6.385 -16.538 -43.711  1.00  0.00     0.163 A 
ATOM      3  C   UNL     1       5.356 -16.093 -42.865  1.00  0.00     0.161 A 
ATOM      4  C   UNL     1       4.622 -17.033 -42.141  1.00  0.00     0.066 A 
ATOM      5  C   UNL     1       4.906 -18.415 -42.263  1.00  0.00     0.067 A 
ATOM      6  C   UNL     1       6.640 -17.908 -43.831  1.00  0.00     0.079 A 
ATOM      7  C   UNL     1       4.236 -19.436 -41.584  1.00  0.00     0.230 A 
ATOM      8  C   UNL     1       5.920 -18.856 -43.117  1.00  0.00     0.081 A 
ATOM      9  N   UNL     1       4.531 -20.747 -41.695  1.00  0.00    -0.201 NA
ATOM     10  N   UNL     1       6.222 -20.152 -43.268  1.00  0.00    -0.236 NA
ATOM     11  C   UNL     1       5.511 -21.035 -42.552  1.00  0.00     0.226 A 
BRANCH   3  12
ATOM     12  O   UNL     1       5.163 -14.737 -42.804  1.00  0.00    -0.493 OA
ATOM     13  C   UNL     1       4.074 -14.191 -43.535  1.00  0.00     0.278 C 
ENDBRANCH   3  12
BRANCH   7  14
ATOM     14  O   UNL     1       3.248 -19.058 -40.676  1.00  0.00    -0.435 OA
BRANCH  14  15
ATOM     15  C   UNL     1       1.952 -19.302 -41.065  1.00  0.00     0.165 A 
ATOM     16  C   UNL     1       1.438 -20.580 -40.854  1.00  0.00     0.052 A 
ATOM     17  C   UNL     1       1.145 -18.281 -41.583  1.00  0.00     0.175 A 
ATOM     18  C   UNL     1       0.112 -20.882 -41.190  1.00  0.00     0.031 A 
ATOM     19  C   UNL     1      -0.189 -18.560 -41.928  1.00  0.00     0.039 A 
ATOM     20  C   UNL     1      -0.675 -19.853 -41.726  1.00  0.00     0.049 A 
ATOM     21  C   UNL     1      -1.257 -17.792 -42.468  1.00  0.00     0.034 A 
ATOM     22  N   UNL     1      -1.987 -19.861 -42.139  1.00  0.00    -0.359 N 
ATOM     23  C   UNL     1      -2.358 -18.616 -42.590  1.00  0.00     0.013 A 
ATOM     24  F   UNL     1       1.636 -17.041 -41.728  1.00  0.00    -0.202 F 
ATOM     25  H   UNL     1      -2.591 -20.671 -42.114  1.00  0.00     0.166 HD
ATOM     26  C   UNL     1      -3.726 -18.342 -43.093  1.00  0.00     0.064 C 
ENDBRANCH  14  15
ENDBRANCH   7  14
ENDBRANCH   1   2
BRANCH   1  27
ATOM     27  C   UNL     1       8.449 -15.750 -44.680  1.00  0.00     0.231 C 
BRANCH  27  28
ATOM     28  C   UNL     1       9.360 -14.933 -43.768  1.00  0.00     0.057 C 
BRANCH  28  29
ATOM     29  C   UNL     1       9.080 -13.425 -43.695  1.00  0.00     0.088 C 
BRANCH  29  30
ATOM     30  N   UNL     1       8.905 -12.908 -42.333  1.00  0.00    -0.303 NA
ATOM     31  C   UNL     1       7.730 -12.034 -42.192  1.00  0.00     0.084 C 
ATOM     32  C   UNL     1       8.645 -13.998 -41.384  1.00  0.00     0.084 C 
ATOM     33  C   UNL     1       7.457 -12.024 -40.693  1.00  0.00     0.017 C 
ATOM     34  C   UNL     1       8.146 -13.268 -40.150  1.00  0.00     0.017 C 
ENDBRANCH  29  30
ENDBRANCH  28  29
ENDBRANCH  27  28
ENDBRANCH   1  27
TORSDOF 8
ENDMDL
MODEL 5
REMARK VINA RESULT:    -7.763      5.526      8.926
REMARK INTER + INTRA:         -12.408
REMARK INTER:                 -11.514
REMARK INTRA:                  -0.894
REMARK UNBOUND:                -1.015
REMARK SMILES COc1cc2c(Oc3ccc4[nH]c(C)cc4c3F)ncnc2cc1OCCCN1CCCC1
REMARK SMILES IDX 25 1 24 2 3 3 4 4 5 5 23 6 6 7 22 8 19 9 21 10 20 11 2 12
REMARK SMILES IDX 1 13 7 14 8 15 9 16 17 17 10 18 16 19 11 20 15 21 12 22
REMARK SMILES IDX 13 23 18 24 14 26 26 27 27 28 28 29 29 30 30 31 33 32 31 33
REMARK SMILES IDX 32 34
REMARK H PARENT 12 25
ROOT
ATOM      1  O   UNL     1       0.324 -10.695 -45.335  1.00  0.00    -0.490 OA
ENDROOT
BRANCH   1   2
ATOM      2  C   UNL     1       1.518 -10.057 -45.113  1.00  0.00     0.163 A 
ATOM      3  C   UNL     1       2.661 -10.688 -45.628  1.00  0.00     0.161 A 
ATOM      4  C   UNL     1       3.906 -10.087 -45.445  1.00  0.00     0.066 A 
ATOM      5  C   UNL     1       4.014  -8.854 -44.756  1.00  0.00     0.067 A 
ATOM      6  C   UNL     1       1.642  -8.831 -44.450  1.00  0.00     0.079 A 
ATOM      7  C   UNL     1       5.209  -8.170 -44.515  1.00  0.00     0.230 A 
ATOM      8  C   UNL     1       2.873  -8.220 -44.259  1.00  0.00     0.081 A 
ATOM      9  N   UNL     1       5.298  -7.007 -43.840  1.00  0.00    -0.201 NA
ATOM     10  N   UNL     1       2.926  -7.053 -43.604  1.00  0.00    -0.236 NA
ATOM     11  C   UNL     1       4.135  -6.500 -43.430  1.00  0.00     0.226 A 
BRANCH   3  12
ATOM     12  O   UNL     1       2.458 -11.883 -46.269  1.00  0.00    -0.493 OA
ATOM     13  C   UNL     1       3.104 -13.034 -45.743  1.00  0.00     0.278 C 
ENDBRANCH   3  12
BRANCH   7  14
ATOM     14  O   UNL     1       6.389  -8.777 -44.941  1.00  0.00    -0.435 OA
BRANCH  14  15
ATOM     15  C   UNL     1       6.934  -9.698 -44.078  1.00  0.00     0.165 A 
ATOM     16  C   UNL     1       7.077  -9.335 -42.740  1.00  0.00     0.052 A 
ATOM     17  C   UNL     1       7.261 -10.990 -44.509  1.00  0.00     0.175 A 
ATOM     18  C   UNL     1       7.587 -10.242 -41.803  1.00  0.00     0.031 A 
ATOM     19  C   UNL     1       7.775 -11.919 -43.586  1.00  0.00     0.039 A 
ATOM     20  C   UNL     1       7.929 -11.524 -42.256  1.00  0.00     0.049 A 
ATOM     21  C   UNL     1       8.208 -13.271 -43.673  1.00  0.00     0.034 A 
ATOM     22  N   UNL     1       8.443 -12.601 -41.571  1.00  0.00    -0.359 N 
ATOM     23  C   UNL     1       8.616 -13.671 -42.417  1.00  0.00     0.013 A 
ATOM     24  F   UNL     1       7.066 -11.346 -45.788  1.00  0.00    -0.202 F 
ATOM     25  H   UNL     1       8.662 -12.601 -40.585  1.00  0.00     0.166 HD
ATOM     26  C   UNL     1       9.154 -14.967 -41.937  1.00  0.00     0.064 C 
ENDBRANCH  14  15
ENDBRANCH   7  14
ENDBRANCH   1   2
BRANCH   1  27
ATOM     27  C   UNL     1      -0.525 -10.983 -44.226  1.00  0.00     0.231 C 
BRANCH  27  28
ATOM     28  C   UNL     1      -1.687 -10.004 -44.087  1.00  0.00     0.057 C 
BRANCH  28  29
ATOM     29  C   UNL     1      -2.965 -10.345 -44.866  1.00  0.00     0.088 C 
BRANCH  29  30
ATOM     30  N   UNL     1      -4.196  -9.804 -44.275  1.00  0.00    -0.303 NA
ATOM     31  C   UNL     1      -4.946 -10.797 -43.492  1.00  0.00     0.084 C 
ATOM     32  C   UNL     1      -3.892  -8.747 -43.302  1.00  0.00     0.084 C 
ATOM     33  C   UNL     1      -5.852  -9.953 -42.602  1.00  0.00     0.017 C 
ATOM     34  C   UNL     1      -5.206  -8.575 -42.562  1.00  0.00     0.017 C 
ENDBRANCH  29  30
ENDBRANCH  28  29
ENDBRANCH  27  28
ENDBRANCH   1  27
TORSDOF 8
ENDMDL
MODEL 6
REMARK VINA RESULT:    -7.731      3.520      5.846
REMARK INTER + INTRA:         -12.361
REMARK INTER:                 -11.432
REMARK INTRA:                  -0.929
REMARK UNBOUND:                -1.015
REMARK SMILES COc1cc2c(Oc3ccc4[nH]c(C)cc4c3F)ncnc2cc1OCCCN1CCCC1
REMARK SMILES IDX 25 1 24 2 3 3 4 4 5 5 23 6 6 7 22 8 19 9 21 10 20 11 2 12
REMARK SMILES IDX 1 13 7 14 8 15 9 16 17 17 10 18 16 19 11 20 15 21 12 22
REMARK SMILES IDX 13 23 18 24 14 26 26 27 27 28 28 29 29 30 30 31 33 32 31 33
REMARK SMILES IDX 32 34
REMARK H PARENT 12 25
ROOT
ATOM      1  O   UNL     1       0.756  -6.693 -44.367  1.00  0.00    -0.490 OA
ENDROOT
BRANCH   1   2
ATOM      2  C   UNL     1       0.497  -7.955 -44.839  1.00  0.00     0.163 A 
ATOM      3  C   UNL     1       1.461  -8.933 -44.545  1.00  0.00     0.161 A 
ATOM      4  C   UNL     1       1.254 -10.240 -44.987  1.00  0.00     0.066 A 
ATOM      5  C   UNL     1       0.087 -10.577 -45.714  1.00  0.00     0.067 A 
ATOM      6  C   UNL     1      -0.658  -8.310 -45.543  1.00  0.00     0.079 A 
ATOM      7  C   UNL     1      -0.216 -11.849 -46.205  1.00  0.00     0.230 A 
ATOM      8  C   UNL     1      -0.878  -9.605 -45.991  1.00  0.00     0.081 A 
ATOM      9  N   UNL     1      -1.323 -12.151 -46.913  1.00  0.00    -0.201 NA
ATOM     10  N   UNL     1      -1.999  -9.876 -46.672  1.00  0.00    -0.236 NA
ATOM     11  C   UNL     1      -2.169 -11.137 -47.097  1.00  0.00     0.226 A 
BRANCH   3  12
ATOM     12  O   UNL     1       2.562  -8.510 -43.846  1.00  0.00    -0.493 OA
ATOM     13  C   UNL     1       3.807  -8.481 -44.530  1.00  0.00     0.278 C 
ENDBRANCH   3  12
BRANCH   7  14
ATOM     14  O   UNL     1       0.732 -12.852 -46.007  1.00  0.00    -0.435 OA
BRANCH  14  15
ATOM     15  C   UNL     1       0.245 -14.057 -45.560  1.00  0.00     0.165 A 
ATOM     16  C   UNL     1      -0.247 -14.954 -46.507  1.00  0.00     0.052 A 
ATOM     17  C   UNL     1       0.313 -14.410 -44.206  1.00  0.00     0.175 A 
ATOM     18  C   UNL     1      -0.720 -16.214 -46.121  1.00  0.00     0.031 A 
ATOM     19  C   UNL     1      -0.155 -15.670 -43.794  1.00  0.00     0.039 A 
ATOM     20  C   UNL     1      -0.662 -16.543 -44.758  1.00  0.00     0.049 A 
ATOM     21  C   UNL     1      -0.243 -16.337 -42.540  1.00  0.00     0.034 A 
ATOM     22  N   UNL     1      -1.048 -17.690 -44.103  1.00  0.00    -0.359 N 
ATOM     23  C   UNL     1      -0.798 -17.582 -42.756  1.00  0.00     0.013 A 
ATOM     24  F   UNL     1       0.841 -13.560 -43.312  1.00  0.00    -0.202 F 
ATOM     25  H   UNL     1      -1.458 -18.495 -44.554  1.00  0.00     0.166 HD
ATOM     26  C   UNL     1      -1.115 -18.681 -41.812  1.00  0.00     0.064 C 
ENDBRANCH  14  15
ENDBRANCH   7  14
ENDBRANCH   1   2
BRANCH   1  27
ATOM     27  C   UNL     1       0.032  -5.589 -44.909  1.00  0.00     0.231 C 
BRANCH  27  28
ATOM     28  C   UNL     1      -1.129  -5.140 -44.026  1.00  0.00     0.057 C 
BRANCH  28  29
ATOM     29  C   UNL     1      -2.541  -5.433 -44.552  1.00  0.00     0.088 C 
BRANCH  29  30
ATOM     30  N   UNL     1      -3.483  -5.901 -43.528  1.00  0.00    -0.303 NA
ATOM     31  C   UNL     1      -4.877  -5.525 -43.810  1.00  0.00     0.084 C 
ATOM     32  C   UNL     1      -3.520  -7.368 -43.477  1.00  0.00     0.084 C 
ATOM     33  C   UNL     1      -5.696  -6.486 -42.956  1.00  0.00     0.017 C 
ATOM     34  C   UNL     1      -4.764  -7.651 -42.656  1.00  0.00     0.017 C 
ENDBRANCH  29  30
ENDBRANCH  28  29
ENDBRANCH  27  28
ENDBRANCH   1  27
TORSDOF 8
ENDMDL
MODEL 7
REMARK VINA RESULT:    -7.697      5.127      6.251
REMARK INTER + INTRA:         -12.311
REMARK INTER:                 -10.869
REMARK INTRA:                  -1.442
REMARK UNBOUND:                -1.015
REMARK SMILES COc1cc2c(Oc3ccc4[nH]c(C)cc4c3F)ncnc2cc1OCCCN1CCCC1
REMARK SMILES IDX 25 1 24 2 3 3 4 4 5 5 23 6 6 7 22 8 19 9 21 10 20 11 2 12
REMARK SMILES IDX 1 13 7 14 8 15 9 16 17 17 10 18 16 19 11 20 15 21 12 22
REMARK SMILES IDX 13 23 18 24 14 26 26 27 27 28 28 29 29 30 30 31 33 32 31 33
REMARK SMILES IDX 32 34
REMARK H PARENT 12 25
ROOT
ATOM      1  O   UNL     1       7.849 -13.449 -44.315  1.00  0.00    -0.490 OA
ENDROOT
BRANCH   1   2
ATOM      2  C   UNL     1       7.151 -14.525 -43.826  1.00  0.00     0.163 A 
ATOM      3  C   UNL     1       6.389 -14.292 -42.670  1.00  0.00     0.161 A 
ATOM      4  C   UNL     1       5.649 -15.341 -42.126  1.00  0.00     0.066 A 
ATOM      5  C   UNL     1       5.659 -16.620 -42.735  1.00  0.00     0.067 A 
ATOM      6  C   UNL     1       7.137 -15.789 -44.424  1.00  0.00     0.079 A 
ATOM      7  C   UNL     1       4.959 -17.737 -42.272  1.00  0.00     0.230 A 
ATOM      8  C   UNL     1       6.406 -16.844 -43.894  1.00  0.00     0.081 A 
ATOM      9  N   UNL     1       4.995 -18.954 -42.852  1.00  0.00    -0.201 NA
ATOM     10  N   UNL     1       6.445 -18.035 -44.507  1.00  0.00    -0.236 NA
ATOM     11  C   UNL     1       5.734 -19.031 -43.959  1.00  0.00     0.226 A 
BRANCH   3  12
ATOM     12  O   UNL     1       6.450 -13.026 -42.146  1.00  0.00    -0.493 OA
ATOM     13  C   UNL     1       7.289 -12.817 -41.019  1.00  0.00     0.278 C 
ENDBRANCH   3  12
BRANCH   7  14
ATOM     14  O   UNL     1       4.236 -17.592 -41.090  1.00  0.00    -0.435 OA
BRANCH  14  15
ATOM     15  C   UNL     1       2.972 -18.133 -41.090  1.00  0.00     0.165 A 
ATOM     16  C   UNL     1       2.738 -19.245 -40.283  1.00  0.00     0.052 A 
ATOM     17  C   UNL     1       1.930 -17.540 -41.813  1.00  0.00     0.175 A 
ATOM     18  C   UNL     1       1.463 -19.818 -40.207  1.00  0.00     0.031 A 
ATOM     19  C   UNL     1       0.640 -18.097 -41.753  1.00  0.00     0.039 A 
ATOM     20  C   UNL     1       0.436 -19.223 -40.954  1.00  0.00     0.049 A 
ATOM     21  C   UNL     1      -0.612 -17.772 -42.344  1.00  0.00     0.034 A 
ATOM     22  N   UNL     1      -0.892 -19.565 -41.069  1.00  0.00    -0.359 N 
ATOM     23  C   UNL     1      -1.543 -18.692 -41.908  1.00  0.00     0.013 A 
ATOM     24  F   UNL     1       2.156 -16.436 -42.542  1.00  0.00    -0.202 F 
ATOM     25  H   UNL     1      -1.324 -20.350 -40.601  1.00  0.00     0.166 HD
ATOM     26  C   UNL     1      -2.990 -18.827 -42.207  1.00  0.00     0.064 C 
ENDBRANCH  14  15
ENDBRANCH   7  14
ENDBRANCH   1   2
BRANCH   1  27
ATOM     27  C   UNL     1       8.901 -13.674 -45.253  1.00  0.00     0.231 C 
BRANCH  27  28
ATOM     28  C   UNL     1      10.285 -13.372 -44.687  1.00  0.00     0.057 C 
BRANCH  28  29
ATOM     29  C   UNL     1      10.348 -12.997 -43.199  1.00  0.00     0.088 C 
BRANCH  29  30
ATOM     30  N   UNL     1      11.087 -13.953 -42.365  1.00  0.00    -0.303 NA
ATOM     31  C   UNL     1      10.435 -15.267 -42.275  1.00  0.00     0.084 C 
ATOM     32  C   UNL     1      12.402 -14.254 -42.947  1.00  0.00     0.084 C 
ATOM     33  C   UNL     1      11.551 -16.201 -41.821  1.00  0.00     0.017 C 
ATOM     34  C   UNL     1      12.845 -15.483 -42.176  1.00  0.00     0.017 C 
ENDBRANCH  29  30
ENDBRANCH  28  29
ENDBRANCH  27  28
ENDBRANCH   1  27
TORSDOF 8
ENDMDL
MODEL 8
REMARK VINA RESULT:    -7.669      3.689      7.911
REMARK INTER + INTRA:         -12.270
REMARK INTER:                 -11.256
REMARK INTRA:                  -1.014
REMARK UNBOUND:                -1.015
REMARK SMILES COc1cc2c(Oc3ccc4[nH]c(C)cc4c3F)ncnc2cc1OCCCN1CCCC1
REMARK SMILES IDX 25 1 24 2 3 3 4 4 5 5 23 6 6 7 22 8 19 9 21 10 20 11 2 12
REMARK SMILES IDX 1 13 7 14 8 15 9 16 17 17 10 18 16 19 11 20 15 21 12 22
REMARK SMILES IDX 13 23 18 24 14 26 26 27 27 28 28 29 29 30 30 31 33 32 31 33
REMARK SMILES IDX 32 34
REMARK H PARENT 12 25
ROOT
ATOM      1  O   UNL     1       5.409 -15.275 -44.472  1.00  0.00    -0.490 OA
ENDROOT
BRANCH   1   2
ATOM      2  C   UNL     1       4.267 -14.751 -45.024  1.00  0.00     0.163 A 
ATOM      3  C   UNL     1       4.170 -13.350 -45.027  1.00  0.00     0.161 A 
ATOM      4  C   UNL     1       3.039 -12.752 -45.582  1.00  0.00     0.066 A 
ATOM      5  C   UNL     1       2.007 -13.545 -46.140  1.00  0.00     0.067 A 
ATOM      6  C   UNL     1       3.246 -15.518 -45.595  1.00  0.00     0.079 A 
ATOM      7  C   UNL     1       0.835 -13.050 -46.716  1.00  0.00     0.230 A 
ATOM      8  C   UNL     1       2.114 -14.938 -46.150  1.00  0.00     0.081 A 
ATOM      9  N   UNL     1      -0.148 -13.819 -47.226  1.00  0.00    -0.201 NA
ATOM     10  N   UNL     1       1.166 -15.729 -46.669  1.00  0.00    -0.236 NA
ATOM     11  C   UNL     1       0.082 -15.132 -47.185  1.00  0.00     0.226 A 
BRANCH   3  12
ATOM     12  O   UNL     1       5.213 -12.667 -44.455  1.00  0.00    -0.493 OA
ATOM     13  C   UNL     1       5.850 -11.662 -45.231  1.00  0.00     0.278 C 
ENDBRANCH   3  12
BRANCH   7  14
ATOM     14  O   UNL     1       0.645 -11.670 -46.691  1.00  0.00    -0.435 OA
BRANCH  14  15
ATOM     15  C   UNL     1      -0.154 -11.193 -45.678  1.00  0.00     0.165 A 
ATOM     16  C   UNL     1       0.444 -10.919 -44.449  1.00  0.00     0.052 A 
ATOM     17  C   UNL     1      -1.510 -10.915 -45.893  1.00  0.00     0.175 A 
ATOM     18  C   UNL     1      -0.306 -10.393 -43.390  1.00  0.00     0.031 A 
ATOM     19  C   UNL     1      -2.284 -10.387 -44.844  1.00  0.00     0.039 A 
ATOM     20  C   UNL     1      -1.666 -10.140 -43.617  1.00  0.00     0.049 A 
ATOM     21  C   UNL     1      -3.647 -10.005 -44.710  1.00  0.00     0.034 A 
ATOM     22  N   UNL     1      -2.629  -9.633 -42.775  1.00  0.00    -0.359 N 
ATOM     23  C   UNL     1      -3.837  -9.542 -43.424  1.00  0.00     0.013 A 
ATOM     24  F   UNL     1      -2.061 -11.132 -47.097  1.00  0.00    -0.202 F 
ATOM     25  H   UNL     1      -2.466  -9.368 -41.813  1.00  0.00     0.166 HD
ATOM     26  C   UNL     1      -5.051  -9.023 -42.747  1.00  0.00     0.064 C 
ENDBRANCH  14  15
ENDBRANCH   7  14
ENDBRANCH   1   2
BRANCH   1  27
ATOM     27  C   UNL     1       5.336 -16.524 -43.786  1.00  0.00     0.231 C 
BRANCH  27  28
ATOM     28  C   UNL     1       4.809 -16.397 -42.360  1.00  0.00     0.057 C 
BRANCH  28  29
ATOM     29  C   UNL     1       5.442 -17.325 -41.313  1.00  0.00     0.088 C 
BRANCH  29  30
ATOM     30  N   UNL     1       4.657 -18.531 -41.021  1.00  0.00    -0.303 NA
ATOM     31  C   UNL     1       3.206 -18.291 -41.023  1.00  0.00     0.084 C 
ATOM     32  C   UNL     1       4.845 -19.548 -42.063  1.00  0.00     0.084 C 
ATOM     33  C   UNL     1       2.605 -19.680 -41.199  1.00  0.00     0.017 C 
ATOM     34  C   UNL     1       3.720 -20.530 -41.791  1.00  0.00     0.017 C 
ENDBRANCH  29  30
ENDBRANCH  28  29
ENDBRANCH  27  28
ENDBRANCH   1  27
TORSDOF 8
ENDMDL
MODEL 9
REMARK VINA RESULT:    -7.664      3.761      4.853
REMARK INTER + INTRA:         -12.263
REMARK INTER:                 -11.208
REMARK INTRA:                  -1.055
REMARK UNBOUND:                -1.015
REMARK SMILES COc1cc2c(Oc3ccc4[nH]c(C)cc4c3F)ncnc2cc1OCCCN1CCCC1
REMARK SMILES IDX 25 1 24 2 3 3 4 4 5 5 23 6 6 7 22 8 19 9 21 10 20 11 2 12
REMARK SMILES IDX 1 13 7 14 8 15 9 16 17 17 10 18 16 19 11 20 15 21 12 22
REMARK SMILES IDX 13 23 18 24 14 26 26 27 27 28 28 29 29 30 30 31 33 32 31 33
REMARK SMILES IDX 32 34
REMARK H PARENT 12 25
ROOT
ATOM      1  O   UNL     1       7.797 -12.589 -44.155  1.00  0.00    -0.490 OA
ENDROOT
BRANCH   1   2
ATOM      2  C   UNL     1       7.202 -13.759 -43.757  1.00  0.00     0.163 A 
ATOM      3  C   UNL     1       6.569 -13.734 -42.504  1.00  0.00     0.161 A 
ATOM      4  C   UNL     1       5.936 -14.889 -42.043  1.00  0.00     0.066 A 
ATOM      5  C   UNL     1       5.927 -16.066 -42.830  1.00  0.00     0.067 A 
ATOM      6  C   UNL     1       7.168 -14.925 -44.528  1.00  0.00     0.079 A 
ATOM      7  C   UNL     1       5.327 -17.274 -42.463  1.00  0.00     0.230 A 
ATOM      8  C   UNL     1       6.544 -16.083 -44.083  1.00  0.00     0.081 A 
ATOM      9  N   UNL     1       5.344 -18.393 -43.215  1.00  0.00    -0.201 NA
ATOM     10  N   UNL     1       6.558 -17.171 -44.865  1.00  0.00    -0.236 NA
ATOM     11  C   UNL     1       5.954 -18.272 -44.395  1.00  0.00     0.226 A 
BRANCH   3  12
ATOM     12  O   UNL     1       6.640 -12.554 -41.810  1.00  0.00    -0.493 OA
ATOM     13  C   UNL     1       7.544 -12.484 -40.716  1.00  0.00     0.278 C 
ENDBRANCH   3  12
BRANCH   7  14
ATOM     14  O   UNL     1       4.740 -17.337 -41.201  1.00  0.00    -0.435 OA
BRANCH  14  15
ATOM     15  C   UNL     1       3.504 -17.937 -41.145  1.00  0.00     0.165 A 
ATOM     16  C   UNL     1       3.357 -19.056 -40.327  1.00  0.00     0.052 A 
ATOM     17  C   UNL     1       2.404 -17.397 -41.824  1.00  0.00     0.175 A 
ATOM     18  C   UNL     1       2.115 -19.687 -40.194  1.00  0.00     0.031 A 
ATOM     19  C   UNL     1       1.146 -18.013 -41.707  1.00  0.00     0.039 A 
ATOM     20  C   UNL     1       1.030 -19.144 -40.897  1.00  0.00     0.049 A 
ATOM     21  C   UNL     1      -0.144 -17.750 -42.244  1.00  0.00     0.034 A 
ATOM     22  N   UNL     1      -0.285 -19.549 -40.954  1.00  0.00    -0.359 N 
ATOM     23  C   UNL     1      -1.012 -18.711 -41.766  1.00  0.00     0.013 A 
ATOM     24  F   UNL     1       2.546 -16.287 -42.565  1.00  0.00    -0.202 F 
ATOM     25  H   UNL     1      -0.658 -20.351 -40.466  1.00  0.00     0.166 HD
ATOM     26  C   UNL     1      -2.462 -18.915 -42.001  1.00  0.00     0.064 C 
ENDBRANCH  14  15
ENDBRANCH   7  14
ENDBRANCH   1   2
BRANCH   1  27
ATOM     27  C   UNL     1       7.350 -11.957 -45.354  1.00  0.00     0.231 C 
BRANCH  27  28
ATOM     28  C   UNL     1       6.138 -11.055 -45.143  1.00  0.00     0.057 C 
BRANCH  28  29
ATOM     29  C   UNL     1       6.430  -9.604 -44.733  1.00  0.00     0.088 C 
BRANCH  29  30
ATOM     30  N   UNL     1       5.481  -9.048 -43.760  1.00  0.00    -0.303 NA
ATOM     31  C   UNL     1       6.123  -8.194 -42.750  1.00  0.00     0.084 C 
ATOM     32  C   UNL     1       4.518  -8.154 -44.415  1.00  0.00     0.084 C 
ATOM     33  C   UNL     1       4.975  -7.362 -42.190  1.00  0.00     0.017 C 
ATOM     34  C   UNL     1       3.882  -7.422 -43.247  1.00  0.00     0.017 C 
ENDBRANCH  29  30
ENDBRANCH  28  29
ENDBRANCH  27  28
ENDBRANCH   1  27
TORSDOF 8
ENDMDL
MODEL 10
REMARK VINA RESULT:    -7.657      4.428      5.485
REMARK INTER + INTRA:         -12.253
REMARK INTER:                 -11.140
REMARK INTRA:                  -1.113
REMARK UNBOUND:                -1.015
REMARK SMILES COc1cc2c(Oc3ccc4[nH]c(C)cc4c3F)ncnc2cc1OCCCN1CCCC1
REMARK SMILES IDX 25 1 24 2 3 3 4 4 5 5 23 6 6 7 22 8 19 9 21 10 20 11 2 12
REMARK SMILES IDX 1 13 7 14 8 15 9 16 17 17 10 18 16 19 11 20 15 21 12 22
REMARK SMILES IDX 13 23 18 24 14 26 26 27 27 28 28 29 29 30 30 31 33 32 31 33
REMARK SMILES IDX 32 34
REMARK H PARENT 12 25
ROOT
ATOM      1  O   UNL     1       6.483 -11.034 -43.764  1.00  0.00    -0.490 OA
ENDROOT
BRANCH   1   2
ATOM      2  C   UNL     1       6.599 -12.394 -43.901  1.00  0.00     0.163 A 
ATOM      3  C   UNL     1       6.755 -13.123 -42.711  1.00  0.00     0.161 A 
ATOM      4  C   UNL     1       6.870 -14.511 -42.779  1.00  0.00     0.066 A 
ATOM      5  C   UNL     1       6.821 -15.176 -44.028  1.00  0.00     0.067 A 
ATOM      6  C   UNL     1       6.536 -13.069 -45.124  1.00  0.00     0.079 A 
ATOM      7  C   UNL     1       6.929 -16.557 -44.209  1.00  0.00     0.230 A 
ATOM      8  C   UNL     1       6.650 -14.450 -45.209  1.00  0.00     0.081 A 
ATOM      9  N   UNL     1       6.902 -17.175 -45.407  1.00  0.00    -0.201 NA
ATOM     10  N   UNL     1       6.595 -15.034 -46.413  1.00  0.00    -0.236 NA
ATOM     11  C   UNL     1       6.720 -16.369 -46.454  1.00  0.00     0.226 A 
BRANCH   3  12
ATOM     12  O   UNL     1       6.802 -12.392 -41.552  1.00  0.00    -0.493 OA
ATOM     13  C   UNL     1       7.864 -12.657 -40.646  1.00  0.00     0.278 C 
ENDBRANCH   3  12
BRANCH   7  14
ATOM     14  O   UNL     1       7.155 -17.334 -43.074  1.00  0.00    -0.435 OA
BRANCH  14  15
ATOM     15  C   UNL     1       6.172 -18.245 -42.766  1.00  0.00     0.165 A 
ATOM     16  C   UNL     1       6.406 -19.585 -43.070  1.00  0.00     0.052 A 
ATOM     17  C   UNL     1       5.005 -17.855 -42.096  1.00  0.00     0.175 A 
ATOM     18  C   UNL     1       5.463 -20.568 -42.745  1.00  0.00     0.031 A 
ATOM     19  C   UNL     1       4.043 -18.824 -41.759  1.00  0.00     0.039 A 
ATOM     20  C   UNL     1       4.292 -20.156 -42.092  1.00  0.00     0.049 A 
ATOM     21  C   UNL     1       2.780 -18.786 -41.106  1.00  0.00     0.034 A 
ATOM     22  N   UNL     1       3.211 -20.890 -41.659  1.00  0.00    -0.359 N 
ATOM     23  C   UNL     1       2.285 -20.073 -41.056  1.00  0.00     0.013 A 
ATOM     24  F   UNL     1       4.817 -16.570 -41.760  1.00  0.00    -0.202 F 
ATOM     25  H   UNL     1       3.115 -21.889 -41.773  1.00  0.00     0.166 HD
ATOM     26  C   UNL     1       1.021 -20.606 -40.493  1.00  0.00     0.064 C 
ENDBRANCH  14  15
ENDBRANCH   7  14
ENDBRANCH   1   2
BRANCH   1  27
ATOM     27  C   UNL     1       7.181 -10.184 -44.672  1.00  0.00     0.231 C 
BRANCH  27  28
ATOM     28  C   UNL     1       7.568  -8.840 -44.061  1.00  0.00     0.057 C 
BRANCH  28  29
ATOM     29  C   UNL     1       6.893  -7.598 -44.661  1.00  0.00     0.088 C 
BRANCH  29  30
ATOM     30  N   UNL     1       5.917  -6.953 -43.774  1.00  0.00    -0.303 NA
ATOM     31  C   UNL     1       4.574  -6.857 -44.364  1.00  0.00     0.084 C 
ATOM     32  C   UNL     1       5.709  -7.745 -42.555  1.00  0.00     0.084 C 
ATOM     33  C   UNL     1       3.660  -6.641 -43.163  1.00  0.00     0.017 C 
ATOM     34  C   UNL     1       4.451  -7.136 -41.961  1.00  0.00     0.017 C 
ENDBRANCH  29  30
ENDBRANCH  28  29
ENDBRANCH  27  28
ENDBRANCH   1  27
TORSDOF 8
ENDMDL
MODEL 11
REMARK VINA RESULT:    -7.630      4.729      6.058
REMARK INTER + INTRA:         -12.213
REMARK INTER:                 -11.436
REMARK INTRA:                  -0.777
REMARK UNBOUND:                -1.015
REMARK SMILES COc1cc2c(Oc3ccc4[nH]c(C)cc4c3F)ncnc2cc1OCCCN1CCCC1
REMARK SMILES IDX 25 1 24 2 3 3 4 4 5 5 23 6 6 7 22 8 19 9 21 10 20 11 2 12
REMARK SMILES IDX 1 13 7 14 8 15 9 16 17 17 10 18 16 19 11 20 15 21 12 22
REMARK SMILES IDX 13 23 18 24 14 26 26 27 27 28 28 29 29 30 30 31 33 32 31 33
REMARK SMILES IDX 32 34
REMARK H PARENT 12 25
ROOT
ATOM      1  O   UNL     1       6.803 -14.571 -43.859  1.00  0.00    -0.490 OA
ENDROOT
BRANCH   1   2
ATOM      2  C   UNL     1       6.451 -15.679 -43.130  1.00  0.00     0.163 A 
ATOM      3  C   UNL     1       5.706 -16.655 -43.812  1.00  0.00     0.161 A 
ATOM      4  C   UNL     1       5.323 -17.810 -43.131  1.00  0.00     0.066 A 
ATOM      5  C   UNL     1       5.687 -18.000 -41.776  1.00  0.00     0.067 A 
ATOM      6  C   UNL     1       6.816 -15.891 -41.797  1.00  0.00     0.079 A 
ATOM      7  C   UNL     1       5.353 -19.115 -41.003  1.00  0.00     0.230 A 
ATOM      8  C   UNL     1       6.441 -17.035 -41.105  1.00  0.00     0.081 A 
ATOM      9  N   UNL     1       5.689 -19.272 -39.707  1.00  0.00    -0.201 NA
ATOM     10  N   UNL     1       6.812 -17.171 -39.825  1.00  0.00    -0.236 NA
ATOM     11  C   UNL     1       6.421 -18.285 -39.188  1.00  0.00     0.226 A 
BRANCH   3  12
ATOM     12  O   UNL     1       5.392 -16.378 -45.118  1.00  0.00    -0.493 OA
ATOM     13  C   UNL     1       5.282 -17.471 -46.017  1.00  0.00     0.278 C 
ENDBRANCH   3  12
BRANCH   7  14
ATOM     14  O   UNL     1       4.556 -20.090 -41.599  1.00  0.00    -0.435 OA
BRANCH  14  15
ATOM     15  C   UNL     1       3.211 -20.016 -41.322  1.00  0.00     0.165 A 
ATOM     16  C   UNL     1       2.783 -19.047 -40.416  1.00  0.00     0.052 A 
ATOM     17  C   UNL     1       2.287 -20.832 -41.988  1.00  0.00     0.175 A 
ATOM     18  C   UNL     1       1.422 -18.892 -40.123  1.00  0.00     0.031 A 
ATOM     19  C   UNL     1       0.915 -20.696 -41.710  1.00  0.00     0.039 A 
ATOM     20  C   UNL     1       0.514 -19.732 -40.784  1.00  0.00     0.049 A 
ATOM     21  C   UNL     1      -0.263 -21.341 -42.178  1.00  0.00     0.034 A 
ATOM     22  N   UNL     1      -0.857 -19.803 -40.694  1.00  0.00    -0.359 N 
ATOM     23  C   UNL     1      -1.345 -20.774 -41.537  1.00  0.00     0.013 A 
ATOM     24  F   UNL     1       2.707 -21.723 -42.899  1.00  0.00    -0.202 F 
ATOM     25  H   UNL     1      -1.422 -19.222 -40.091  1.00  0.00     0.166 HD
ATOM     26  C   UNL     1      -2.796 -21.060 -41.643  1.00  0.00     0.064 C 
ENDBRANCH  14  15
ENDBRANCH   7  14
ENDBRANCH   1   2
BRANCH   1  27
ATOM     27  C   UNL     1       8.185 -14.316 -44.108  1.00  0.00     0.231 C 
BRANCH  27  28
ATOM     28  C   UNL     1       8.634 -12.934 -43.644  1.00  0.00     0.057 C 
BRANCH  28  29
ATOM     29  C   UNL     1       7.803 -12.284 -42.529  1.00  0.00     0.088 C 
BRANCH  29  30
ATOM     30  N   UNL     1       7.085 -11.070 -42.938  1.00  0.00    -0.303 NA
ATOM     31  C   UNL     1       7.450  -9.888 -42.143  1.00  0.00     0.084 C 
ATOM     32  C   UNL     1       7.435 -10.690 -44.312  1.00  0.00     0.084 C 
ATOM     33  C   UNL     1       7.009  -8.714 -43.009  1.00  0.00     0.017 C 
ATOM     34  C   UNL     1       6.904  -9.272 -44.421  1.00  0.00     0.017 C 
ENDBRANCH  29  30
ENDBRANCH  28  29
ENDBRANCH  27  28
ENDBRANCH   1  27
TORSDOF 8
ENDMDL
MODEL 12
REMARK VINA RESULT:    -7.606      5.879      7.907
REMARK INTER + INTRA:         -12.178
REMARK INTER:                 -11.010
REMARK INTRA:                  -1.168
REMARK UNBOUND:                -1.015
REMARK SMILES COc1cc2c(Oc3ccc4[nH]c(C)cc4c3F)ncnc2cc1OCCCN1CCCC1
REMARK SMILES IDX 25 1 24 2 3 3 4 4 5 5 23 6 6 7 22 8 19 9 21 10 20 11 2 12
REMARK SMILES IDX 1 13 7 14 8 15 9 16 17 17 10 18 16 19 11 20 15 21 12 22
REMARK SMILES IDX 13 23 18 24 14 26 26 27 27 28 28 29 29 30 30 31 33 32 31 33
REMARK SMILES IDX 32 34
REMARK H PARENT 12 25
ROOT
ATOM      1  O   UNL     1       7.092  -9.644 -43.665  1.00  0.00    -0.490 OA
ENDROOT
BRANCH   1   2
ATOM      2  C   UNL     1       5.886  -9.057 -43.955  1.00  0.00     0.163 A 
ATOM      3  C   UNL     1       4.972  -9.846 -44.672  1.00  0.00     0.161 A 
ATOM      4  C   UNL     1       3.724  -9.313 -44.992  1.00  0.00     0.066 A 
ATOM      5  C   UNL     1       3.380  -7.998 -44.593  1.00  0.00     0.067 A 
ATOM      6  C   UNL     1       5.523  -7.767 -43.554  1.00  0.00     0.079 A 
ATOM      7  C   UNL     1       2.162  -7.369 -44.863  1.00  0.00     0.230 A 
ATOM      8  C   UNL     1       4.285  -7.221 -43.865  1.00  0.00     0.081 A 
ATOM      9  N   UNL     1       1.857  -6.109 -44.493  1.00  0.00    -0.201 NA
ATOM     10  N   UNL     1       4.003  -5.975 -43.463  1.00  0.00    -0.236 NA
ATOM     11  C   UNL     1       2.801  -5.480 -43.793  1.00  0.00     0.226 A 
BRANCH   3  12
ATOM     12  O   UNL     1       5.399 -11.100 -45.025  1.00  0.00    -0.493 OA
ATOM     13  C   UNL     1       4.409 -12.082 -45.301  1.00  0.00     0.278 C 
ENDBRANCH   3  12
BRANCH   7  14
ATOM     14  O   UNL     1       1.236  -8.072 -45.631  1.00  0.00    -0.435 OA
BRANCH  14  15
ATOM     15  C   UNL     1       0.181  -8.622 -44.942  1.00  0.00     0.165 A 
ATOM     16  C   UNL     1       0.403  -9.807 -44.244  1.00  0.00     0.052 A 
ATOM     17  C   UNL     1      -1.058  -7.972 -44.876  1.00  0.00     0.175 A 
ATOM     18  C   UNL     1      -0.619 -10.396 -43.489  1.00  0.00     0.031 A 
ATOM     19  C   UNL     1      -2.101  -8.544 -44.125  1.00  0.00     0.039 A 
ATOM     20  C   UNL     1      -1.859  -9.742 -43.451  1.00  0.00     0.049 A 
ATOM     21  C   UNL     1      -3.447  -8.175 -43.851  1.00  0.00     0.034 A 
ATOM     22  N   UNL     1      -3.024 -10.083 -42.802  1.00  0.00    -0.359 N 
ATOM     23  C   UNL     1      -3.997  -9.141 -43.033  1.00  0.00     0.013 A 
ATOM     24  F   UNL     1      -1.243  -6.803 -45.507  1.00  0.00    -0.202 F 
ATOM     25  H   UNL     1      -3.142 -10.913 -42.237  1.00  0.00     0.166 HD
ATOM     26  C   UNL     1      -5.355  -9.260 -42.448  1.00  0.00     0.064 C 
ENDBRANCH  14  15
ENDBRANCH   7  14
ENDBRANCH   1   2
BRANCH   1  27
ATOM     27  C   UNL     1       7.563  -9.629 -42.318  1.00  0.00     0.231 C 
BRANCH  27  28
ATOM     28  C   UNL     1       7.528 -11.003 -41.655  1.00  0.00     0.057 C 
BRANCH  28  29
ATOM     29  C   UNL     1       7.614 -12.216 -42.591  1.00  0.00     0.088 C 
BRANCH  29  30
ATOM     30  N   UNL     1       8.949 -12.449 -43.158  1.00  0.00    -0.303 NA
ATOM     31  C   UNL     1       9.706 -13.489 -42.445  1.00  0.00     0.084 C 
ATOM     32  C   UNL     1       8.856 -12.963 -44.531  1.00  0.00     0.084 C 
ATOM     33  C   UNL     1      10.781 -13.907 -43.442  1.00  0.00     0.017 C 
ATOM     34  C   UNL     1      10.261 -13.469 -44.803  1.00  0.00     0.017 C 
ENDBRANCH  29  30
ENDBRANCH  28  29
ENDBRANCH  27  28
ENDBRANCH   1  27
TORSDOF 8
ENDMDL
MODEL 13
REMARK VINA RESULT:    -7.600      2.024      2.707
REMARK INTER + INTRA:         -12.170
REMARK INTER:                 -11.166
REMARK INTRA:                  -1.004
REMARK UNBOUND:                -1.015
REMARK SMILES COc1cc2c(Oc3ccc4[nH]c(C)cc4c3F)ncnc2cc1OCCCN1CCCC1
REMARK SMILES IDX 25 1 24 2 3 3 4 4 5 5 23 6 6 7 22 8 19 9 21 10 20 11 2 12
REMARK SMILES IDX 1 13 7 14 8 15 9 16 17 17 10 18 16 19 11 20 15 21 12 22
REMARK SMILES IDX 13 23 18 24 14 26 26 27 27 28 28 29 29 30 30 31 33 32 31 33
REMARK SMILES IDX 32 34
REMARK H PARENT 12 25
ROOT
ATOM      1  O   UNL     1       0.781  -8.122 -44.744  1.00  0.00    -0.490 OA
ENDROOT
BRANCH   1   2
ATOM      2  C   UNL     1       1.185  -9.406 -45.006  1.00  0.00     0.163 A 
ATOM      3  C   UNL     1       0.182 -10.297 -45.420  1.00  0.00     0.161 A 
ATOM      4  C   UNL     1       0.527 -11.616 -45.711  1.00  0.00     0.066 A 
ATOM      5  C   UNL     1       1.871 -12.049 -45.600  1.00  0.00     0.067 A 
ATOM      6  C   UNL     1       2.510  -9.847 -44.918  1.00  0.00     0.079 A 
ATOM      7  C   UNL     1       2.322 -13.345 -45.864  1.00  0.00     0.230 A 
ATOM      8  C   UNL     1       2.870 -11.157 -45.203  1.00  0.00     0.081 A 
ATOM      9  N   UNL     1       3.603 -13.747 -45.733  1.00  0.00    -0.201 NA
ATOM     10  N   UNL     1       4.154 -11.519 -45.086  1.00  0.00    -0.236 NA
ATOM     11  C   UNL     1       4.459 -12.796 -45.361  1.00  0.00     0.226 A 
BRANCH   3  12
ATOM     12  O   UNL     1      -1.091  -9.790 -45.487  1.00  0.00    -0.493 OA
ATOM     13  C   UNL     1      -2.132 -10.668 -45.890  1.00  0.00     0.278 C 
ENDBRANCH   3  12
BRANCH   7  14
ATOM     14  O   UNL     1       1.366 -14.296 -46.213  1.00  0.00    -0.435 OA
BRANCH  14  15
ATOM     15  C   UNL     1       0.907 -15.089 -45.187  1.00  0.00     0.165 A 
ATOM     16  C   UNL     1       1.669 -15.155 -44.022  1.00  0.00     0.052 A 
ATOM     17  C   UNL     1      -0.326 -15.747 -45.276  1.00  0.00     0.175 A 
ATOM     18  C   UNL     1       1.236 -15.912 -42.926  1.00  0.00     0.031 A 
ATOM     19  C   UNL     1      -0.782 -16.514 -44.189  1.00  0.00     0.039 A 
ATOM     20  C   UNL     1       0.008 -16.580 -43.040  1.00  0.00     0.049 A 
ATOM     21  C   UNL     1      -1.944 -17.297 -43.942  1.00  0.00     0.034 A 
ATOM     22  N   UNL     1      -0.654 -17.382 -42.139  1.00  0.00    -0.359 N 
ATOM     23  C   UNL     1      -1.842 -17.824 -42.671  1.00  0.00     0.013 A 
ATOM     24  F   UNL     1      -1.076 -15.631 -46.382  1.00  0.00    -0.202 F 
ATOM     25  H   UNL     1      -0.310 -17.613 -41.218  1.00  0.00     0.166 HD
ATOM     26  C   UNL     1      -2.760 -18.705 -41.908  1.00  0.00     0.064 C 
ENDBRANCH  14  15
ENDBRANCH   7  14
ENDBRANCH   1   2
BRANCH   1  27
ATOM     27  C   UNL     1       1.343  -7.050 -45.500  1.00  0.00     0.231 C 
BRANCH  27  28
ATOM     28  C   UNL     1       1.920  -5.938 -44.629  1.00  0.00     0.057 C 
BRANCH  28  29
ATOM     29  C   UNL     1       3.362  -5.509 -44.936  1.00  0.00     0.088 C 
BRANCH  29  30
ATOM     30  N   UNL     1       4.360  -6.016 -43.985  1.00  0.00    -0.303 NA
ATOM     31  C   UNL     1       3.762  -6.596 -42.774  1.00  0.00     0.084 C 
ATOM     32  C   UNL     1       5.123  -7.128 -44.566  1.00  0.00     0.084 C 
ATOM     33  C   UNL     1       4.872  -7.468 -42.199  1.00  0.00     0.017 C 
ATOM     34  C   UNL     1       5.819  -7.733 -43.360  1.00  0.00     0.017 C 
ENDBRANCH  29  30
ENDBRANCH  28  29
ENDBRANCH  27  28
ENDBRANCH   1  27
TORSDOF 8
ENDMDL
MODEL 14
REMARK VINA RESULT:    -7.573      4.541      8.286
REMARK INTER + INTRA:         -12.130
REMARK INTER:                 -11.059
REMARK INTRA:                  -1.071
REMARK UNBOUND:                -1.015
REMARK SMILES COc1cc2c(Oc3ccc4[nH]c(C)cc4c3F)ncnc2cc1OCCCN1CCCC1
REMARK SMILES IDX 25 1 24 2 3 3 4 4 5 5 23 6 6 7 22 8 19 9 21 10 20 11 2 12
REMARK SMILES IDX 1 13 7 14 8 15 9 16 17 17 10 18 16 19 11 20 15 21 12 22
REMARK SMILES IDX 13 23 18 24 14 26 26 27 27 28 28 29 29 30 30 31 33 32 31 33
REMARK SMILES IDX 32 34
REMARK H PARENT 12 25
ROOT
ATOM      1  O   UNL     1      -0.999 -12.207 -45.644  1.00  0.00    -0.490 OA
ENDROOT
BRANCH   1   2
ATOM      2  C   UNL     1       0.357 -12.248 -45.438  1.00  0.00     0.163 A 
ATOM      3  C   UNL     1       0.858 -13.428 -44.865  1.00  0.00     0.161 A 
ATOM      4  C   UNL     1       2.230 -13.539 -44.636  1.00  0.00     0.066 A 
ATOM      5  C   UNL     1       3.104 -12.481 -44.984  1.00  0.00     0.067 A 
ATOM      6  C   UNL     1       1.238 -11.220 -45.791  1.00  0.00     0.079 A 
ATOM      7  C   UNL     1       4.488 -12.488 -44.796  1.00  0.00     0.230 A 
ATOM      8  C   UNL     1       2.605 -11.315 -45.569  1.00  0.00     0.081 A 
ATOM      9  N   UNL     1       5.306 -11.464 -45.114  1.00  0.00    -0.201 NA
ATOM     10  N   UNL     1       3.393 -10.289 -45.917  1.00  0.00    -0.236 NA
ATOM     11  C   UNL     1       4.706 -10.414 -45.677  1.00  0.00     0.226 A 
BRANCH   3  12
ATOM     12  O   UNL     1      -0.066 -14.392 -44.552  1.00  0.00    -0.493 OA
ATOM     13  C   UNL     1       0.079 -15.668 -45.158  1.00  0.00     0.278 C 
ENDBRANCH   3  12
BRANCH   7  14
ATOM     14  O   UNL     1       5.042 -13.602 -44.169  1.00  0.00    -0.435 OA
BRANCH  14  15
ATOM     15  C   UNL     1       6.015 -14.267 -44.878  1.00  0.00     0.165 A 
ATOM     16  C   UNL     1       5.606 -15.201 -45.828  1.00  0.00     0.052 A 
ATOM     17  C   UNL     1       7.371 -13.960 -44.711  1.00  0.00     0.175 A 
ATOM     18  C   UNL     1       6.546 -15.883 -46.611  1.00  0.00     0.031 A 
ATOM     19  C   UNL     1       8.334 -14.631 -45.486  1.00  0.00     0.039 A 
ATOM     20  C   UNL     1       7.901 -15.577 -46.417  1.00  0.00     0.049 A 
ATOM     21  C   UNL     1       9.753 -14.579 -45.573  1.00  0.00     0.034 A 
ATOM     22  N   UNL     1       9.023 -16.080 -47.034  1.00  0.00    -0.359 N 
ATOM     23  C   UNL     1      10.156 -15.483 -46.535  1.00  0.00     0.013 A 
ATOM     24  F   UNL     1       7.748 -13.018 -43.833  1.00  0.00    -0.202 F 
ATOM     25  H   UNL     1       9.011 -16.791 -47.752  1.00  0.00     0.166 HD
ATOM     26  C   UNL     1      11.509 -15.838 -47.028  1.00  0.00     0.064 C 
ENDBRANCH  14  15
ENDBRANCH   7  14
ENDBRANCH   1   2
BRANCH   1  27
ATOM     27  C   UNL     1      -1.520 -11.341 -46.652  1.00  0.00     0.231 C 
BRANCH  27  28
ATOM     28  C   UNL     1      -2.357 -10.197 -46.087  1.00  0.00     0.057 C 
BRANCH  28  29
ATOM     29  C   UNL     1      -2.624 -10.227 -44.576  1.00  0.00     0.088 C 
BRANCH  29  30
ATOM     30  N   UNL     1      -4.014  -9.939 -44.201  1.00  0.00    -0.303 NA
ATOM     31  C   UNL     1      -4.231  -9.931 -42.747  1.00  0.00     0.084 C 
ATOM     32  C   UNL     1      -4.402  -8.586 -44.620  1.00  0.00     0.084 C 
ATOM     33  C   UNL     1      -5.532  -9.155 -42.574  1.00  0.00     0.017 C 
ATOM     34  C   UNL     1      -5.691  -8.346 -43.854  1.00  0.00     0.017 C 
ENDBRANCH  29  30
ENDBRANCH  28  29
ENDBRANCH  27  28
ENDBRANCH   1  27
TORSDOF 8
ENDMDL
MODEL 15
REMARK VINA RESULT:    -7.539      3.513      4.992
REMARK INTER + INTRA:         -12.080
REMARK INTER:                 -11.221
REMARK INTRA:                  -0.859
REMARK UNBOUND:                -1.015
REMARK SMILES COc1cc2c(Oc3ccc4[nH]c(C)cc4c3F)ncnc2cc1OCCCN1CCCC1
REMARK SMILES IDX 25 1 24 2 3 3 4 4 5 5 23 6 6 7 22 8 19 9 21 10 20 11 2 12
REMARK SMILES IDX 1 13 7 14 8 15 9 16 17 17 10 18 16 19 11 20 15 21 12 22
REMARK SMILES IDX 13 23 18 24 14 26 26 27 27 28 28 29 29 30 30 31 33 32 31 33
REMARK SMILES IDX 32 34
REMARK H PARENT 12 25
ROOT
ATOM      1  O   UNL     1       5.552 -15.095 -45.416  1.00  0.00    -0.490 OA
ENDROOT
BRANCH   1   2
ATOM      2  C   UNL     1       5.300 -16.042 -44.456  1.00  0.00     0.163 A 
ATOM      3  C   UNL     1       4.201 -15.794 -43.618  1.00  0.00     0.161 A 
ATOM      4  C   UNL     1       3.884 -16.722 -42.626  1.00  0.00     0.066 A 
ATOM      5  C   UNL     1       4.655 -17.900 -42.472  1.00  0.00     0.067 A 
ATOM      6  C   UNL     1       6.039 -17.220 -44.300  1.00  0.00     0.079 A 
ATOM      7  C   UNL     1       4.426 -18.890 -41.512  1.00  0.00     0.230 A 
ATOM      8  C   UNL     1       5.737 -18.152 -43.317  1.00  0.00     0.081 A 
ATOM      9  N   UNL     1       5.181 -19.997 -41.364  1.00  0.00    -0.201 NA
ATOM     10  N   UNL     1       6.493 -19.254 -43.212  1.00  0.00    -0.236 NA
ATOM     11  C   UNL     1       6.176 -20.125 -42.243  1.00  0.00     0.226 A 
BRANCH   3  12
ATOM     12  O   UNL     1       3.523 -14.622 -43.835  1.00  0.00    -0.493 OA
ATOM     13  C   UNL     1       2.236 -14.704 -44.432  1.00  0.00     0.278 C 
ENDBRANCH   3  12
BRANCH   7  14
ATOM     14  O   UNL     1       3.392 -18.672 -40.604  1.00  0.00    -0.435 OA
BRANCH  14  15
ATOM     15  C   UNL     1       2.172 -19.205 -40.946  1.00  0.00     0.165 A 
ATOM     16  C   UNL     1       2.019 -20.588 -40.872  1.00  0.00     0.052 A 
ATOM     17  C   UNL     1       1.090 -18.381 -41.282  1.00  0.00     0.175 A 
ATOM     18  C   UNL     1       0.790 -21.189 -41.168  1.00  0.00     0.031 A 
ATOM     19  C   UNL     1      -0.156 -18.961 -41.583  1.00  0.00     0.039 A 
ATOM     20  C   UNL     1      -0.277 -20.351 -41.521  1.00  0.00     0.049 A 
ATOM     21  C   UNL     1      -1.427 -18.447 -41.959  1.00  0.00     0.034 A 
ATOM     22  N   UNL     1      -1.576 -20.658 -41.857  1.00  0.00    -0.359 N 
ATOM     23  C   UNL     1      -2.288 -19.513 -42.123  1.00  0.00     0.013 A 
ATOM     24  F   UNL     1       1.234 -17.047 -41.295  1.00  0.00    -0.202 F 
ATOM     25  H   UNL     1      -1.949 -21.596 -41.901  1.00  0.00     0.166 HD
ATOM     26  C   UNL     1      -3.720 -19.554 -42.508  1.00  0.00     0.064 C 
ENDBRANCH  14  15
ENDBRANCH   7  14
ENDBRANCH   1   2
BRANCH   1  27
ATOM     27  C   UNL     1       6.653 -14.206 -45.240  1.00  0.00     0.231 C 
BRANCH  27  28
ATOM     28  C   UNL     1       6.232 -12.745 -45.114  1.00  0.00     0.057 C 
BRANCH  28  29
ATOM     29  C   UNL     1       7.121 -11.850 -44.239  1.00  0.00     0.088 C 
BRANCH  29  30
ATOM     30  N   UNL     1       6.461 -10.632 -43.752  1.00  0.00    -0.303 NA
ATOM     31  C   UNL     1       7.281  -9.873 -42.796  1.00  0.00     0.084 C 
ATOM     32  C   UNL     1       6.230  -9.683 -44.848  1.00  0.00     0.084 C 
ATOM     33  C   UNL     1       6.665  -8.479 -42.812  1.00  0.00     0.017 C 
ATOM     34  C   UNL     1       5.892  -8.394 -44.120  1.00  0.00     0.017 C 
ENDBRANCH  29  30
ENDBRANCH  28  29
ENDBRANCH  27  28
ENDBRANCH   1  27
TORSDOF 8
ENDMDL
MODEL 16
REMARK VINA RESULT:    -7.537      5.441      8.707
REMARK INTER + INTRA:         -12.077
REMARK INTER:                 -11.018
REMARK INTRA:                  -1.059
REMARK UNBOUND:                -1.015
REMARK SMILES COc1cc2c(Oc3ccc4[nH]c(C)cc4c3F)ncnc2cc1OCCCN1CCCC1
REMARK SMILES IDX 25 1 24 2 3 3 4 4 5 5 23 6 6 7 22 8 19 9 21 10 20 11 2 12
REMARK SMILES IDX 1 13 7 14 8 15 9 16 17 17 10 18 16 19 11 20 15 21 12 22
REMARK SMILES IDX 13 23 18 24 14 26 26 27 27 28 28 29 29 30 30 31 33 32 31 33
REMARK SMILES IDX 32 34
REMARK H PARENT 12 25
ROOT
ATOM      1  O   UNL     1       1.297  -9.166 -45.188  1.00  0.00    -0.490 OA
ENDROOT
BRANCH   1   2
ATOM      2  C   UNL     1       2.420  -9.952 -45.243  1.00  0.00     0.163 A 
ATOM      3  C   UNL     1       3.644  -9.292 -45.047  1.00  0.00     0.161 A 
ATOM      4  C   UNL     1       4.825 -10.034 -45.081  1.00  0.00     0.066 A 
ATOM      5  C   UNL     1       4.789 -11.432 -45.303  1.00  0.00     0.067 A 
ATOM      6  C   UNL     1       2.403 -11.336 -45.444  1.00  0.00     0.079 A 
ATOM      7  C   UNL     1       5.909 -12.266 -45.360  1.00  0.00     0.230 A 
ATOM      8  C   UNL     1       3.569 -12.088 -45.482  1.00  0.00     0.081 A 
ATOM      9  N   UNL     1       5.860 -13.593 -45.592  1.00  0.00    -0.201 NA
ATOM     10  N   UNL     1       3.485 -13.408 -45.692  1.00  0.00    -0.236 NA
ATOM     11  C   UNL     1       4.634 -14.098 -45.733  1.00  0.00     0.226 A 
BRANCH   3  12
ATOM     12  O   UNL     1       3.579  -7.937 -44.850  1.00  0.00    -0.493 OA
ATOM     13  C   UNL     1       4.223  -7.404 -43.701  1.00  0.00     0.278 C 
ENDBRANCH   3  12
BRANCH   7  14
ATOM     14  O   UNL     1       7.160 -11.664 -45.241  1.00  0.00    -0.435 OA
BRANCH  14  15
ATOM     15  C   UNL     1       7.948 -12.119 -44.210  1.00  0.00     0.165 A 
ATOM     16  C   UNL     1       7.580 -11.782 -42.909  1.00  0.00     0.052 A 
ATOM     17  C   UNL     1       9.041 -12.961 -44.450  1.00  0.00     0.175 A 
ATOM     18  C   UNL     1       8.317 -12.247 -41.813  1.00  0.00     0.031 A 
ATOM     19  C   UNL     1       9.797 -13.442 -43.367  1.00  0.00     0.039 A 
ATOM     20  C   UNL     1       9.420 -13.073 -42.074  1.00  0.00     0.049 A 
ATOM     21  C   UNL     1      10.938 -14.282 -43.245  1.00  0.00     0.034 A 
ATOM     22  N   UNL     1      10.310 -13.667 -41.209  1.00  0.00    -0.359 N 
ATOM     23  C   UNL     1      11.237 -14.407 -41.904  1.00  0.00     0.013 A 
ATOM     24  F   UNL     1       9.352 -13.323 -45.705  1.00  0.00    -0.202 F 
ATOM     25  H   UNL     1      10.283 -13.569 -40.203  1.00  0.00     0.166 HD
ATOM     26  C   UNL     1      12.314 -15.157 -41.214  1.00  0.00     0.064 C 
ENDBRANCH  14  15
ENDBRANCH   7  14
ENDBRANCH   1   2
BRANCH   1  27
ATOM     27  C   UNL     1       0.018  -9.772 -45.372  1.00  0.00     0.231 C 
BRANCH  27  28
ATOM     28  C   UNL     1      -1.034  -9.266 -44.389  1.00  0.00     0.057 C 
BRANCH  28  29
ATOM     29  C   UNL     1      -2.244 -10.180 -44.152  1.00  0.00     0.088 C 
BRANCH  29  30
ATOM     30  N   UNL     1      -3.238  -9.638 -43.217  1.00  0.00    -0.303 NA
ATOM     31  C   UNL     1      -3.606  -8.245 -43.509  1.00  0.00     0.084 C 
ATOM     32  C   UNL     1      -4.510 -10.365 -43.321  1.00  0.00     0.084 C 
ATOM     33  C   UNL     1      -4.937  -8.059 -42.790  1.00  0.00     0.017 C 
ATOM     34  C   UNL     1      -5.481  -9.464 -42.580  1.00  0.00     0.017 C 
ENDBRANCH  29  30
ENDBRANCH  28  29
ENDBRANCH  27  28
ENDBRANCH   1  27
TORSDOF 8
ENDMDL
MODEL 17
REMARK VINA RESULT:    -7.507      4.283      7.313
REMARK INTER + INTRA:         -12.033
REMARK INTER:                 -10.976
REMARK INTRA:                  -1.056
REMARK UNBOUND:                -1.015
REMARK SMILES COc1cc2c(Oc3ccc4[nH]c(C)cc4c3F)ncnc2cc1OCCCN1CCCC1
REMARK SMILES IDX 25 1 24 2 3 3 4 4 5 5 23 6 6 7 22 8 19 9 21 10 20 11 2 12
REMARK SMILES IDX 1 13 7 14 8 15 9 16 17 17 10 18 16 19 11 20 15 21 12 22
REMARK SMILES IDX 13 23 18 24 14 26 26 27 27 28 28 29 29 30 30 31 33 32 31 33
REMARK SMILES IDX 32 34
REMARK H PARENT 12 25
ROOT
ATOM      1  O   UNL     1      -0.135  -9.151 -43.749  1.00  0.00    -0.490 OA
ENDROOT
BRANCH   1   2
ATOM      2  C   UNL     1       0.454 -10.273 -44.275  1.00  0.00     0.163 A 
ATOM      3  C   UNL     1       1.856 -10.261 -44.343  1.00  0.00     0.161 A 
ATOM      4  C   UNL     1       2.518 -11.374 -44.860  1.00  0.00     0.066 A 
ATOM      5  C   UNL     1       1.787 -12.504 -45.302  1.00  0.00     0.067 A 
ATOM      6  C   UNL     1      -0.251 -11.404 -44.700  1.00  0.00     0.079 A 
ATOM      7  C   UNL     1       2.348 -13.666 -45.837  1.00  0.00     0.230 A 
ATOM      8  C   UNL     1       0.392 -12.520 -45.218  1.00  0.00     0.081 A 
ATOM      9  N   UNL     1       1.637 -14.726 -46.272  1.00  0.00    -0.201 NA
ATOM     10  N   UNL     1      -0.342 -13.566 -45.620  1.00  0.00    -0.236 NA
ATOM     11  C   UNL     1       0.316 -14.620 -46.124  1.00  0.00     0.226 A 
BRANCH   3  12
ATOM     12  O   UNL     1       2.476  -9.119 -43.902  1.00  0.00    -0.493 OA
ATOM     13  C   UNL     1       3.561  -8.618 -44.670  1.00  0.00     0.278 C 
ENDBRANCH   3  12
BRANCH   7  14
ATOM     14  O   UNL     1       3.732 -13.691 -45.996  1.00  0.00    -0.435 OA
BRANCH  14  15
ATOM     15  C   UNL     1       4.463 -13.907 -44.851  1.00  0.00     0.165 A 
ATOM     16  C   UNL     1       4.123 -14.999 -44.055  1.00  0.00     0.052 A 
ATOM     17  C   UNL     1       5.566 -13.104 -44.533  1.00  0.00     0.175 A 
ATOM     18  C   UNL     1       4.854 -15.296 -42.898  1.00  0.00     0.031 A 
ATOM     19  C   UNL     1       6.316 -13.382 -43.376  1.00  0.00     0.039 A 
ATOM     20  C   UNL     1       5.943 -14.469 -42.585  1.00  0.00     0.049 A 
ATOM     21  C   UNL     1       7.455 -12.791 -42.763  1.00  0.00     0.034 A 
ATOM     22  N   UNL     1       6.824 -14.523 -41.529  1.00  0.00    -0.359 N 
ATOM     23  C   UNL     1       7.751 -13.511 -41.625  1.00  0.00     0.013 A 
ATOM     24  F   UNL     1       5.917 -12.089 -45.338  1.00  0.00    -0.202 F 
ATOM     25  H   UNL     1       6.790 -15.210 -40.790  1.00  0.00     0.166 HD
ATOM     26  C   UNL     1       8.824 -13.337 -40.616  1.00  0.00     0.064 C 
ENDBRANCH  14  15
ENDBRANCH   7  14
ENDBRANCH   1   2
BRANCH   1  27
ATOM     27  C   UNL     1      -0.908  -8.309 -44.602  1.00  0.00     0.231 C 
BRANCH  27  28
ATOM     28  C   UNL     1      -2.287  -7.984 -44.036  1.00  0.00     0.057 C 
BRANCH  28  29
ATOM     29  C   UNL     1      -3.477  -8.164 -44.990  1.00  0.00     0.088 C 
BRANCH  29  30
ATOM     30  N   UNL     1      -4.565  -8.989 -44.451  1.00  0.00    -0.303 NA
ATOM     31  C   UNL     1      -4.133 -10.346 -44.083  1.00  0.00     0.084 C 
ATOM     32  C   UNL     1      -5.076  -8.431 -43.193  1.00  0.00     0.084 C 
ATOM     33  C   UNL     1      -5.221 -10.831 -43.131  1.00  0.00     0.017 C 
ATOM     34  C   UNL     1      -5.904  -9.569 -42.624  1.00  0.00     0.017 C 
ENDBRANCH  29  30
ENDBRANCH  28  29
ENDBRANCH  27  28
ENDBRANCH   1  27
TORSDOF 8
ENDMDL
MODEL 18
REMARK VINA RESULT:    -7.503      5.204      6.683
REMARK INTER + INTRA:         -12.026
REMARK INTER:                 -11.127
REMARK INTRA:                  -0.899
REMARK UNBOUND:                -1.015
REMARK SMILES COc1cc2c(Oc3ccc4[nH]c(C)cc4c3F)ncnc2cc1OCCCN1CCCC1
REMARK SMILES IDX 25 1 24 2 3 3 4 4 5 5 23 6 6 7 22 8 19 9 21 10 20 11 2 12
REMARK SMILES IDX 1 13 7 14 8 15 9 16 17 17 10 18 16 19 11 20 15 21 12 22
REMARK SMILES IDX 13 23 18 24 14 26 26 27 27 28 28 29 29 30 30 31 33 32 31 33
REMARK SMILES IDX 32 34
REMARK H PARENT 12 25
ROOT
ATOM      1  O   UNL     1       6.826 -15.320 -44.628  1.00  0.00    -0.490 OA
ENDROOT
BRANCH   1   2
ATOM      2  C   UNL     1       6.249 -16.301 -43.862  1.00  0.00     0.163 A 
ATOM      3  C   UNL     1       5.176 -15.899 -43.050  1.00  0.00     0.161 A 
ATOM      4  C   UNL     1       4.538 -16.849 -42.253  1.00  0.00     0.066 A 
ATOM      5  C   UNL     1       4.961 -18.201 -42.268  1.00  0.00     0.067 A 
ATOM      6  C   UNL     1       6.642 -17.644 -43.877  1.00  0.00     0.079 A 
ATOM      7  C   UNL     1       4.395 -19.228 -41.508  1.00  0.00     0.230 A 
ATOM      8  C   UNL     1       6.018 -18.601 -43.088  1.00  0.00     0.081 A 
ATOM      9  N   UNL     1       4.822 -20.507 -41.518  1.00  0.00    -0.201 NA
ATOM     10  N   UNL     1       6.451 -19.868 -43.139  1.00  0.00    -0.236 NA
ATOM     11  C   UNL     1       5.830 -20.761 -42.354  1.00  0.00     0.226 A 
BRANCH   3  12
ATOM     12  O   UNL     1       4.846 -14.569 -43.094  1.00  0.00    -0.493 OA
ATOM     13  C   UNL     1       3.660 -14.204 -43.785  1.00  0.00     0.278 C 
ENDBRANCH   3  12
BRANCH   7  14
ATOM     14  O   UNL     1       3.371 -18.883 -40.630  1.00  0.00    -0.435 OA
BRANCH  14  15
ATOM     15  C   UNL     1       2.102 -19.244 -41.017  1.00  0.00     0.165 A 
ATOM     16  C   UNL     1       1.716 -20.571 -40.834  1.00  0.00     0.052 A 
ATOM     17  C   UNL     1       1.195 -18.295 -41.507  1.00  0.00     0.175 A 
ATOM     18  C   UNL     1       0.424 -20.993 -41.170  1.00  0.00     0.031 A 
ATOM     19  C   UNL     1      -0.108 -18.695 -41.851  1.00  0.00     0.039 A 
ATOM     20  C   UNL     1      -0.464 -20.034 -41.677  1.00  0.00     0.049 A 
ATOM     21  C   UNL     1      -1.251 -18.023 -42.368  1.00  0.00     0.034 A 
ATOM     22  N   UNL     1      -1.773 -20.160 -42.084  1.00  0.00    -0.359 N 
ATOM     23  C   UNL     1      -2.266 -18.948 -42.504  1.00  0.00     0.013 A 
ATOM     24  F   UNL     1       1.561 -17.010 -41.626  1.00  0.00    -0.202 F 
ATOM     25  H   UNL     1      -2.294 -21.026 -42.074  1.00  0.00     0.166 HD
ATOM     26  C   UNL     1      -3.658 -18.797 -42.993  1.00  0.00     0.064 C 
ENDBRANCH  14  15
ENDBRANCH   7  14
ENDBRANCH   1   2
BRANCH   1  27
ATOM     27  C   UNL     1       7.756 -15.692 -45.644  1.00  0.00     0.231 C 
BRANCH  27  28
ATOM     28  C   UNL     1       9.199 -15.338 -45.296  1.00  0.00     0.057 C 
BRANCH  28  29
ATOM     29  C   UNL     1      10.088 -14.875 -46.459  1.00  0.00     0.088 C 
BRANCH  29  30
ATOM     30  N   UNL     1      11.432 -14.440 -46.057  1.00  0.00    -0.303 NA
ATOM     31  C   UNL     1      11.827 -14.933 -44.730  1.00  0.00     0.084 C 
ATOM     32  C   UNL     1      12.455 -14.992 -46.955  1.00  0.00     0.084 C 
ATOM     33  C   UNL     1      13.346 -14.807 -44.728  1.00  0.00     0.017 C 
ATOM     34  C   UNL     1      13.746 -14.746 -46.195  1.00  0.00     0.017 C 
ENDBRANCH  29  30
ENDBRANCH  28  29
ENDBRANCH  27  28
ENDBRANCH   1  27
TORSDOF 8
ENDMDL
MODEL 19
REMARK VINA RESULT:    -7.468      4.120      6.355
REMARK INTER + INTRA:         -11.975
REMARK INTER:                 -10.688
REMARK INTRA:                  -1.287
REMARK UNBOUND:                -1.015
REMARK SMILES COc1cc2c(Oc3ccc4[nH]c(C)cc4c3F)ncnc2cc1OCCCN1CCCC1
REMARK SMILES IDX 25 1 24 2 3 3 4 4 5 5 23 6 6 7 22 8 19 9 21 10 20 11 2 12
REMARK SMILES IDX 1 13 7 14 8 15 9 16 17 17 10 18 16 19 11 20 15 21 12 22
REMARK SMILES IDX 13 23 18 24 14 26 26 27 27 28 28 29 29 30 30 31 33 32 31 33
REMARK SMILES IDX 32 34
REMARK H PARENT 12 25
ROOT
ATOM      1  O   UNL     1      -0.223  -8.915 -44.044  1.00  0.00    -0.490 OA
ENDROOT
BRANCH   1   2
ATOM      2  C   UNL     1       0.353 -10.065 -44.522  1.00  0.00     0.163 A 
ATOM      3  C   UNL     1       1.742 -10.176 -44.352  1.00  0.00     0.161 A 
ATOM      4  C   UNL     1       2.389 -11.325 -44.807  1.00  0.00     0.066 A 
ATOM      5  C   UNL     1       1.654 -12.367 -45.423  1.00  0.00     0.067 A 
ATOM      6  C   UNL     1      -0.359 -11.111 -45.117  1.00  0.00     0.079 A 
ATOM      7  C   UNL     1       2.202 -13.554 -45.915  1.00  0.00     0.230 A 
ATOM      8  C   UNL     1       0.270 -12.261 -45.576  1.00  0.00     0.081 A 
ATOM      9  N   UNL     1       1.492 -14.529 -46.518  1.00  0.00    -0.201 NA
ATOM     10  N   UNL     1      -0.468 -13.221 -46.149  1.00  0.00    -0.236 NA
ATOM     11  C   UNL     1       0.178 -14.311 -46.590  1.00  0.00     0.226 A 
BRANCH   3  12
ATOM     12  O   UNL     1       2.368  -9.112 -43.755  1.00  0.00    -0.493 OA
ATOM     13  C   UNL     1       3.377  -8.439 -44.495  1.00  0.00     0.278 C 
ENDBRANCH   3  12
BRANCH   7  14
ATOM     14  O   UNL     1       3.586 -13.699 -45.840  1.00  0.00    -0.435 OA
BRANCH  14  15
ATOM     15  C   UNL     1       4.037 -14.806 -45.161  1.00  0.00     0.165 A 
ATOM     16  C   UNL     1       3.705 -14.925 -43.813  1.00  0.00     0.052 A 
ATOM     17  C   UNL     1       4.739 -15.824 -45.819  1.00  0.00     0.175 A 
ATOM     18  C   UNL     1       4.099 -16.048 -43.075  1.00  0.00     0.031 A 
ATOM     19  C   UNL     1       5.146 -16.962 -45.100  1.00  0.00     0.039 A 
ATOM     20  C   UNL     1       4.819 -17.048 -43.746  1.00  0.00     0.049 A 
ATOM     21  C   UNL     1       5.859 -18.147 -45.434  1.00  0.00     0.034 A 
ATOM     22  N   UNL     1       5.326 -18.241 -43.283  1.00  0.00    -0.359 N 
ATOM     23  C   UNL     1       5.958 -18.921 -44.296  1.00  0.00     0.013 A 
ATOM     24  F   UNL     1       5.004 -15.723 -47.131  1.00  0.00    -0.202 F 
ATOM     25  H   UNL     1       5.243 -18.566 -42.330  1.00  0.00     0.166 HD
ATOM     26  C   UNL     1       6.593 -20.242 -44.073  1.00  0.00     0.064 C 
ENDBRANCH  14  15
ENDBRANCH   7  14
ENDBRANCH   1   2
BRANCH   1  27
ATOM     27  C   UNL     1      -0.685  -7.934 -44.972  1.00  0.00     0.231 C 
BRANCH  27  28
ATOM     28  C   UNL     1      -2.200  -7.946 -45.155  1.00  0.00     0.057 C 
BRANCH  28  29
ATOM     29  C   UNL     1      -3.042  -7.823 -43.877  1.00  0.00     0.088 C 
BRANCH  29  30
ATOM     30  N   UNL     1      -4.234  -8.680 -43.854  1.00  0.00    -0.303 NA
ATOM     31  C   UNL     1      -3.915 -10.115 -43.868  1.00  0.00     0.084 C 
ATOM     32  C   UNL     1      -4.988  -8.501 -42.607  1.00  0.00     0.084 C 
ATOM     33  C   UNL     1      -5.186 -10.779 -43.352  1.00  0.00     0.017 C 
ATOM     34  C   UNL     1      -5.938  -9.685 -42.607  1.00  0.00     0.017 C 
ENDBRANCH  29  30
ENDBRANCH  28  29
ENDBRANCH  27  28
ENDBRANCH   1  27
TORSDOF 8
ENDMDL
MODEL 20
REMARK VINA RESULT:    -7.425      4.164      6.772
REMARK INTER + INTRA:         -11.912
REMARK INTER:                 -10.865
REMARK INTRA:                  -1.047
REMARK UNBOUND:                -1.015
REMARK SMILES COc1cc2c(Oc3ccc4[nH]c(C)cc4c3F)ncnc2cc1OCCCN1CCCC1
REMARK SMILES IDX 25 1 24 2 3 3 4 4 5 5 23 6 6 7 22 8 19 9 21 10 20 11 2 12
REMARK SMILES IDX 1 13 7 14 8 15 9 16 17 17 10 18 16 19 11 20 15 21 12 22
REMARK SMILES IDX 13 23 18 24 14 26 26 27 27 28 28 29 29 30 30 31 33 32 31 33
REMARK SMILES IDX 32 34
REMARK H PARENT 12 25
ROOT
ATOM      1  O   UNL     1      -0.732 -12.191 -45.420  1.00  0.00    -0.490 OA
ENDROOT
BRANCH   1   2
ATOM      2  C   UNL     1       0.562 -12.645 -45.473  1.00  0.00     0.163 A 
ATOM      3  C   UNL     1       0.726 -14.015 -45.732  1.00  0.00     0.161 A 
ATOM      4  C   UNL     1       2.016 -14.540 -45.809  1.00  0.00     0.066 A 
ATOM      5  C   UNL     1       3.144 -13.701 -45.635  1.00  0.00     0.067 A 
ATOM      6  C   UNL     1       1.688 -11.829 -45.321  1.00  0.00     0.079 A 
ATOM      7  C   UNL     1       4.474 -14.123 -45.688  1.00  0.00     0.230 A 
ATOM      8  C   UNL     1       2.978 -12.335 -45.393  1.00  0.00     0.081 A 
ATOM      9  N   UNL     1       5.538 -13.316 -45.501  1.00  0.00    -0.201 NA
ATOM     10  N   UNL     1       4.014 -11.503 -45.225  1.00  0.00    -0.236 NA
ATOM     11  C   UNL     1       5.245 -12.033 -45.291  1.00  0.00     0.226 A 
BRANCH   3  12
ATOM     12  O   UNL     1      -0.425 -14.748 -45.875  1.00  0.00    -0.493 OA
ATOM     13  C   UNL     1      -0.566 -15.533 -47.050  1.00  0.00     0.278 C 
ENDBRANCH   3  12
BRANCH   7  14
ATOM     14  O   UNL     1       4.706 -15.484 -45.875  1.00  0.00    -0.435 OA
BRANCH  14  15
ATOM     15  C   UNL     1       5.342 -16.131 -44.842  1.00  0.00     0.165 A 
ATOM     16  C   UNL     1       6.702 -16.405 -44.982  1.00  0.00     0.052 A 
ATOM     17  C   UNL     1       4.669 -16.435 -43.652  1.00  0.00     0.175 A 
ATOM     18  C   UNL     1       7.417 -17.024 -43.949  1.00  0.00     0.031 A 
ATOM     19  C   UNL     1       5.366 -17.057 -42.600  1.00  0.00     0.039 A 
ATOM     20  C   UNL     1       6.722 -17.339 -42.773  1.00  0.00     0.049 A 
ATOM     21  C   UNL     1       5.009 -17.501 -41.297  1.00  0.00     0.034 A 
ATOM     22  N   UNL     1       7.160 -17.939 -41.615  1.00  0.00    -0.359 N 
ATOM     23  C   UNL     1       6.133 -18.043 -40.707  1.00  0.00     0.013 A 
ATOM     24  F   UNL     1       3.374 -16.115 -43.508  1.00  0.00    -0.202 F 
ATOM     25  H   UNL     1       8.106 -18.258 -41.458  1.00  0.00     0.166 HD
ATOM     26  C   UNL     1       6.331 -18.650 -39.369  1.00  0.00     0.064 C 
ENDBRANCH  14  15
ENDBRANCH   7  14
ENDBRANCH   1   2
BRANCH   1  27
ATOM     27  C   UNL     1      -1.014 -10.853 -45.827  1.00  0.00     0.231 C 
BRANCH  27  28
ATOM     28  C   UNL     1      -2.319 -10.312 -45.250  1.00  0.00     0.057 C 
BRANCH  28  29
ATOM     29  C   UNL     1      -2.247  -9.719 -43.836  1.00  0.00     0.088 C 
BRANCH  29  30
ATOM     30  N   UNL     1      -3.549  -9.569 -43.175  1.00  0.00    -0.303 NA
ATOM     31  C   UNL     1      -4.198  -8.281 -43.462  1.00  0.00     0.084 C 
ATOM     32  C   UNL     1      -4.509 -10.563 -43.671  1.00  0.00     0.084 C 
ATOM     33  C   UNL     1      -5.664  -8.526 -43.124  1.00  0.00     0.017 C 
ATOM     34  C   UNL     1      -5.840 -10.037 -43.165  1.00  0.00     0.017 C 
ENDBRANCH  29  30
ENDBRANCH  28  29
ENDBRANCH  27  28
ENDBRANCH   1  27
TORSDOF 8
ENDMDL
