MODEL 1
REMARK VINA RESULT:    -9.360      0.000      0.000
REMARK INTER + INTRA:         -13.801
REMARK INTER:                 -12.917
REMARK INTRA:                  -0.884
REMARK UNBOUND:                -0.884
REMARK SMILES CC(C)(C)c1nc(-c2cccc(NS(=O)(=O)c3c(F)cccc3F)c2F)c(-c2ccnc(N)n2)s1
REMARK SMILES IDX 8 1 9 2 10 3 11 4 12 5 25 6 26 7 7 8 5 9 6 10 35 11 27 12
REMARK SMILES IDX 2 13 1 14 3 15 4 16 28 17 29 18 34 19 30 20 32 21 31 22
REMARK SMILES IDX 33 23 13 26 14 28 15 29 16 30 17 31 18 32 23 33 20 34 22 35
REMARK SMILES IDX 21 36 19 37 24 38
REMARK H PARENT 33 24 33 25 13 27
ROOT
ATOM      1  C   UNL     1       0.498  -7.821 -45.059  1.00  0.00     0.040 A 
ATOM      2  C   UNL     1       1.052  -6.715 -45.718  1.00  0.00     0.013 A 
ATOM      3  C   UNL     1       0.418  -5.470 -45.664  1.00  0.00     0.003 A 
ATOM      4  C   UNL     1      -0.764  -5.314 -44.938  1.00  0.00     0.030 A 
ATOM      5  C   UNL     1      -1.306  -6.397 -44.251  1.00  0.00     0.085 A 
ATOM      6  C   UNL     1      -0.677  -7.645 -44.323  1.00  0.00     0.156 A 
ATOM      7  F   UNL     1      -1.210  -8.670 -43.639  1.00  0.00    -0.204 F 
ENDROOT
BRANCH   1   8
ATOM      8  C   UNL     1       1.182  -9.102 -45.120  1.00  0.00     0.094 A 
ATOM      9  C   UNL     1       1.255 -11.285 -45.542  1.00  0.00     0.099 A 
ATOM     10  N   UNL     1       0.471 -10.227 -45.502  1.00  0.00    -0.240 NA
ATOM     11  S   UNL     1       2.884 -10.982 -45.065  1.00  0.00    -0.116 S 
ATOM     12  C   UNL     1       2.512  -9.323 -44.794  1.00  0.00     0.081 A 
BRANCH   9  13
ATOM     13  C   UNL     1       0.782 -12.682 -45.943  1.00  0.00     0.014 C 
ATOM     14  C   UNL     1       1.984 -13.543 -46.370  1.00  0.00     0.018 C 
ATOM     15  C   UNL     1       0.104 -13.371 -44.736  1.00  0.00     0.018 C 
ATOM     16  C   UNL     1      -0.249 -12.620 -47.087  1.00  0.00     0.018 C 
ENDBRANCH   9  13
BRANCH  12  17
ATOM     17  C   UNL     1       3.550  -8.435 -44.272  1.00  0.00     0.088 A 
ATOM     18  C   UNL     1       4.613  -8.025 -45.047  1.00  0.00     0.050 A 
ATOM     19  N   UNL     1       3.392  -8.061 -42.986  1.00  0.00    -0.212 NA
ATOM     20  C   UNL     1       5.522  -7.213 -44.416  1.00  0.00     0.117 A 
ATOM     21  C   UNL     1       4.324  -7.255 -42.477  1.00  0.00     0.220 A 
ATOM     22  N   UNL     1       5.406  -6.826 -43.135  1.00  0.00    -0.222 NA
BRANCH  21  23
ATOM     23  N   UNL     1       4.186  -6.877 -41.157  1.00  0.00    -0.368 N 
ATOM     24  H   UNL     1       3.800  -5.943 -41.110  1.00  0.00     0.159 HD
ATOM     25  H   UNL     1       3.704  -7.602 -40.641  1.00  0.00     0.159 HD
ENDBRANCH  21  23
ENDBRANCH  12  17
ENDBRANCH   1   8
BRANCH   5  26
ATOM     26  N   UNL     1      -2.483  -6.257 -43.447  1.00  0.00    -0.276 N 
ATOM     27  H   UNL     1      -2.504  -5.440 -42.833  1.00  0.00     0.180 HD
BRANCH  26  28
ATOM     28  S   UNL     1      -3.995  -6.466 -44.192  1.00  0.00     0.267 S 
ATOM     29  O   UNL     1      -3.760  -6.449 -45.619  1.00  0.00    -0.201 OA
ATOM     30  O   UNL     1      -4.917  -5.526 -43.592  1.00  0.00    -0.201 OA
BRANCH  28  31
ATOM     31  C   UNL     1      -4.453  -8.100 -43.758  1.00  0.00     0.158 A 
ATOM     32  C   UNL     1      -4.050  -9.194 -44.508  1.00  0.00     0.146 A 
ATOM     33  C   UNL     1      -5.236  -8.294 -42.626  1.00  0.00     0.146 A 
ATOM     34  C   UNL     1      -4.438 -10.482 -44.133  1.00  0.00     0.041 A 
ATOM     35  C   UNL     1      -5.632  -9.575 -42.243  1.00  0.00     0.041 A 
ATOM     36  C   UNL     1      -5.230 -10.675 -43.000  1.00  0.00     0.006 A 
ATOM     37  F   UNL     1      -3.296  -9.064 -45.605  1.00  0.00    -0.205 F 
ATOM     38  F   UNL     1      -5.661  -7.250 -41.899  1.00  0.00    -0.205 F 
ENDBRANCH  28  31
ENDBRANCH  26  28
ENDBRANCH   5  26
TORSDOF 7
ENDMDL
MODEL 2
REMARK VINA RESULT:    -8.732      5.068      8.383
REMARK INTER + INTRA:         -12.934
REMARK INTER:                 -11.932
REMARK INTRA:                  -1.002
REMARK UNBOUND:                -0.884
REMARK SMILES CC(C)(C)c1nc(-c2cccc(NS(=O)(=O)c3c(F)cccc3F)c2F)c(-c2ccnc(N)n2)s1
REMARK SMILES IDX 8 1 9 2 10 3 11 4 12 5 25 6 26 7 7 8 5 9 6 10 35 11 27 12
REMARK SMILES IDX 2 13 1 14 3 15 4 16 28 17 29 18 34 19 30 20 32 21 31 22
REMARK SMILES IDX 33 23 13 26 14 28 15 29 16 30 17 31 18 32 23 33 20 34 22 35
REMARK SMILES IDX 21 36 19 37 24 38
REMARK H PARENT 33 24 33 25 13 27
ROOT
ATOM      1  C   UNL     1       1.316 -13.076 -45.911  1.00  0.00     0.040 A 
ATOM      2  C   UNL     1       0.740 -13.422 -47.141  1.00  0.00     0.013 A 
ATOM      3  C   UNL     1       0.298 -14.729 -47.372  1.00  0.00     0.003 A 
ATOM      4  C   UNL     1       0.410 -15.696 -46.371  1.00  0.00     0.030 A 
ATOM      5  C   UNL     1       0.948 -15.355 -45.133  1.00  0.00     0.085 A 
ATOM      6  C   UNL     1       1.406 -14.050 -44.913  1.00  0.00     0.156 A 
ATOM      7  F   UNL     1       1.906 -13.743 -43.706  1.00  0.00    -0.204 F 
ENDROOT
BRANCH   1   8
ATOM      8  C   UNL     1       1.757 -11.709 -45.691  1.00  0.00     0.094 A 
ATOM      9  C   UNL     1       3.325 -10.138 -45.537  1.00  0.00     0.099 A 
ATOM     10  N   UNL     1       3.112 -11.427 -45.711  1.00  0.00    -0.240 NA
ATOM     11  S   UNL     1       1.895  -9.208 -45.284  1.00  0.00    -0.116 S 
ATOM     12  C   UNL     1       0.930 -10.627 -45.425  1.00  0.00     0.081 A 
BRANCH   9  13
ATOM     13  C   UNL     1       4.713  -9.498 -45.523  1.00  0.00     0.014 C 
ATOM     14  C   UNL     1       5.791 -10.580 -45.336  1.00  0.00     0.018 C 
ATOM     15  C   UNL     1       4.974  -8.789 -46.872  1.00  0.00     0.018 C 
ATOM     16  C   UNL     1       4.834  -8.442 -44.408  1.00  0.00     0.018 C 
ENDBRANCH   9  13
BRANCH  12  17
ATOM     17  C   UNL     1      -0.517 -10.528 -45.234  1.00  0.00     0.088 A 
ATOM     18  C   UNL     1      -1.397 -10.618 -46.291  1.00  0.00     0.050 A 
ATOM     19  N   UNL     1      -0.917 -10.335 -43.961  1.00  0.00    -0.212 NA
ATOM     20  C   UNL     1      -2.724 -10.482 -45.965  1.00  0.00     0.117 A 
ATOM     21  C   UNL     1      -2.230 -10.234 -43.753  1.00  0.00     0.220 A 
ATOM     22  N   UNL     1      -3.161 -10.279 -44.711  1.00  0.00    -0.222 NA
BRANCH  21  23
ATOM     23  N   UNL     1      -2.654 -10.019 -42.458  1.00  0.00    -0.368 N 
ATOM     24  H   UNL     1      -3.285  -9.228 -42.434  1.00  0.00     0.159 HD
ATOM     25  H   UNL     1      -2.986 -10.887 -42.056  1.00  0.00     0.159 HD
ENDBRANCH  21  23
ENDBRANCH  12  17
ENDBRANCH   1   8
BRANCH   5  26
ATOM     26  N   UNL     1       1.021 -16.305 -44.064  1.00  0.00    -0.276 N 
ATOM     27  H   UNL     1       1.924 -16.365 -43.586  1.00  0.00     0.180 HD
BRANCH  26  28
ATOM     28  S   UNL     1      -0.241 -16.338 -42.929  1.00  0.00     0.267 S 
ATOM     29  O   UNL     1      -1.475 -16.234 -43.677  1.00  0.00    -0.201 OA
ATOM     30  O   UNL     1       0.068 -15.375 -41.894  1.00  0.00    -0.201 OA
BRANCH  28  31
ATOM     31  C   UNL     1      -0.167 -17.958 -42.268  1.00  0.00     0.158 A 
ATOM     32  C   UNL     1      -1.195 -18.870 -42.454  1.00  0.00     0.146 A 
ATOM     33  C   UNL     1       0.959 -18.331 -41.544  1.00  0.00     0.146 A 
ATOM     34  C   UNL     1      -1.103 -20.152 -41.909  1.00  0.00     0.041 A 
ATOM     35  C   UNL     1       1.062 -19.608 -40.992  1.00  0.00     0.041 A 
ATOM     36  C   UNL     1       0.026 -20.524 -41.176  1.00  0.00     0.006 A 
ATOM     37  F   UNL     1      -2.301 -18.563 -43.141  1.00  0.00    -0.205 F 
ATOM     38  F   UNL     1       1.955 -17.460 -41.327  1.00  0.00    -0.205 F 
ENDBRANCH  28  31
ENDBRANCH  26  28
ENDBRANCH   5  26
TORSDOF 7
ENDMDL
MODEL 3
REMARK VINA RESULT:    -8.590      0.822      2.027
REMARK INTER + INTRA:         -12.738
REMARK INTER:                 -11.952
REMARK INTRA:                  -0.785
REMARK UNBOUND:                -0.884
REMARK SMILES CC(C)(C)c1nc(-c2cccc(NS(=O)(=O)c3c(F)cccc3F)c2F)c(-c2ccnc(N)n2)s1
REMARK SMILES IDX 8 1 9 2 10 3 11 4 12 5 25 6 26 7 7 8 5 9 6 10 35 11 27 12
REMARK SMILES IDX 2 13 1 14 3 15 4 16 28 17 29 18 34 19 30 20 32 21 31 22
REMARK SMILES IDX 33 23 13 26 14 28 15 29 16 30 17 31 18 32 23 33 20 34 22 35
REMARK SMILES IDX 21 36 19 37 24 38
REMARK H PARENT 33 24 33 25 13 27
ROOT
ATOM      1  C   UNL     1       0.581  -7.759 -45.121  1.00  0.00     0.040 A 
ATOM      2  C   UNL     1       1.140  -6.642 -45.755  1.00  0.00     0.013 A 
ATOM      3  C   UNL     1       0.504  -5.398 -45.687  1.00  0.00     0.003 A 
ATOM      4  C   UNL     1      -0.685  -5.256 -44.969  1.00  0.00     0.030 A 
ATOM      5  C   UNL     1      -1.232  -6.351 -44.306  1.00  0.00     0.085 A 
ATOM      6  C   UNL     1      -0.601  -7.598 -44.393  1.00  0.00     0.156 A 
ATOM      7  F   UNL     1      -1.139  -8.635 -43.731  1.00  0.00    -0.204 F 
ENDROOT
BRANCH   1   8
ATOM      8  C   UNL     1       1.268  -9.038 -45.196  1.00  0.00     0.094 A 
ATOM      9  C   UNL     1       1.319 -11.236 -45.537  1.00  0.00     0.099 A 
ATOM     10  N   UNL     1       0.533 -10.181 -45.464  1.00  0.00    -0.240 NA
ATOM     11  S   UNL     1       2.984 -10.906 -45.232  1.00  0.00    -0.116 S 
ATOM     12  C   UNL     1       2.625  -9.240 -44.993  1.00  0.00     0.081 A 
BRANCH   9  13
ATOM     13  C   UNL     1       0.822 -12.651 -45.835  1.00  0.00     0.014 C 
ATOM     14  C   UNL     1      -0.224 -12.615 -46.964  1.00  0.00     0.018 C 
ATOM     15  C   UNL     1       2.003 -13.532 -46.303  1.00  0.00     0.018 C 
ATOM     16  C   UNL     1       0.214 -13.309 -44.581  1.00  0.00     0.018 C 
ENDBRANCH   9  13
BRANCH  12  17
ATOM     17  C   UNL     1       3.700  -8.326 -44.609  1.00  0.00     0.088 A 
ATOM     18  C   UNL     1       3.810  -7.831 -43.327  1.00  0.00     0.050 A 
ATOM     19  N   UNL     1       4.560  -8.003 -45.596  1.00  0.00    -0.212 NA
ATOM     20  C   UNL     1       4.854  -6.964 -43.118  1.00  0.00     0.117 A 
ATOM     21  C   UNL     1       5.549  -7.166 -45.280  1.00  0.00     0.220 A 
ATOM     22  N   UNL     1       5.725  -6.610 -44.078  1.00  0.00    -0.222 NA
BRANCH  21  23
ATOM     23  N   UNL     1       6.427  -6.812 -46.284  1.00  0.00    -0.368 N 
ATOM     24  H   UNL     1       5.949  -6.833 -47.176  1.00  0.00     0.159 HD
ATOM     25  H   UNL     1       6.905  -5.954 -46.036  1.00  0.00     0.159 HD
ENDBRANCH  21  23
ENDBRANCH  12  17
ENDBRANCH   1   8
BRANCH   5  26
ATOM     26  N   UNL     1      -2.416  -6.227 -43.511  1.00  0.00    -0.276 N 
ATOM     27  H   UNL     1      -2.443  -5.422 -42.879  1.00  0.00     0.180 HD
BRANCH  26  28
ATOM     28  S   UNL     1      -3.921  -6.417 -44.274  1.00  0.00     0.267 S 
ATOM     29  O   UNL     1      -3.659  -6.491 -45.695  1.00  0.00    -0.201 OA
ATOM     30  O   UNL     1      -4.816  -5.409 -43.748  1.00  0.00    -0.201 OA
BRANCH  28  31
ATOM     31  C   UNL     1      -4.453  -8.004 -43.758  1.00  0.00     0.158 A 
ATOM     32  C   UNL     1      -5.249  -8.178 -42.637  1.00  0.00     0.146 A 
ATOM     33  C   UNL     1      -4.066  -9.111 -44.504  1.00  0.00     0.146 A 
ATOM     34  C   UNL     1      -5.651  -9.460 -42.253  1.00  0.00     0.041 A 
ATOM     35  C   UNL     1      -4.459 -10.396 -44.130  1.00  0.00     0.041 A 
ATOM     36  C   UNL     1      -5.256 -10.572 -43.000  1.00  0.00     0.006 A 
ATOM     37  F   UNL     1      -5.650  -7.148 -41.883  1.00  0.00    -0.205 F 
ATOM     38  F   UNL     1      -3.274  -8.973 -45.578  1.00  0.00    -0.205 F 
ENDBRANCH  28  31
ENDBRANCH  26  28
ENDBRANCH   5  26
TORSDOF 7
ENDMDL
MODEL 4
REMARK VINA RESULT:    -8.577      8.262     10.861
REMARK INTER + INTRA:         -12.720
REMARK INTER:                 -11.485
REMARK INTRA:                  -1.235
REMARK UNBOUND:                -0.884
REMARK SMILES CC(C)(C)c1nc(-c2cccc(NS(=O)(=O)c3c(F)cccc3F)c2F)c(-c2ccnc(N)n2)s1
REMARK SMILES IDX 8 1 9 2 10 3 11 4 12 5 25 6 26 7 7 8 5 9 6 10 35 11 27 12
REMARK SMILES IDX 2 13 1 14 3 15 4 16 28 17 29 18 34 19 30 20 32 21 31 22
REMARK SMILES IDX 33 23 13 26 14 28 15 29 16 30 17 31 18 32 23 33 20 34 22 35
REMARK SMILES IDX 21 36 19 37 24 38
REMARK H PARENT 33 24 33 25 13 27
ROOT
ATOM      1  C   UNL     1       7.535 -13.899 -44.904  1.00  0.00     0.040 A 
ATOM      2  C   UNL     1       8.618 -14.307 -45.693  1.00  0.00     0.013 A 
ATOM      3  C   UNL     1       8.819 -15.663 -45.970  1.00  0.00     0.003 A 
ATOM      4  C   UNL     1       7.930 -16.621 -45.475  1.00  0.00     0.030 A 
ATOM      5  C   UNL     1       6.832 -16.223 -44.719  1.00  0.00     0.085 A 
ATOM      6  C   UNL     1       6.645 -14.866 -44.430  1.00  0.00     0.156 A 
ATOM      7  F   UNL     1       5.569 -14.507 -43.712  1.00  0.00    -0.204 F 
ENDROOT
BRANCH   1   8
ATOM      8  C   UNL     1       7.340 -12.482 -44.640  1.00  0.00     0.094 A 
ATOM      9  C   UNL     1       6.784 -10.417 -45.251  1.00  0.00     0.099 A 
ATOM     10  N   UNL     1       6.953 -11.651 -45.678  1.00  0.00    -0.240 NA
ATOM     11  S   UNL     1       7.138 -10.187 -43.579  1.00  0.00    -0.116 S 
ATOM     12  C   UNL     1       7.537 -11.854 -43.420  1.00  0.00     0.081 A 
BRANCH   9  13
ATOM     13  C   UNL     1       6.342  -9.258 -46.145  1.00  0.00     0.014 C 
ATOM     14  C   UNL     1       4.818  -9.307 -46.356  1.00  0.00     0.018 C 
ATOM     15  C   UNL     1       6.689  -7.913 -45.468  1.00  0.00     0.018 C 
ATOM     16  C   UNL     1       7.059  -9.295 -47.509  1.00  0.00     0.018 C 
ENDBRANCH   9  13
BRANCH  12  17
ATOM     17  C   UNL     1       8.022 -12.351 -42.132  1.00  0.00     0.088 A 
ATOM     18  C   UNL     1       9.254 -12.956 -42.004  1.00  0.00     0.050 A 
ATOM     19  N   UNL     1       7.176 -12.183 -41.096  1.00  0.00    -0.212 NA
ATOM     20  C   UNL     1       9.565 -13.396 -40.742  1.00  0.00     0.117 A 
ATOM     21  C   UNL     1       7.585 -12.632 -39.909  1.00  0.00     0.220 A 
ATOM     22  N   UNL     1       8.746 -13.256 -39.686  1.00  0.00    -0.222 NA
BRANCH  21  23
ATOM     23  N   UNL     1       6.723 -12.482 -38.842  1.00  0.00    -0.368 N 
ATOM     24  H   UNL     1       7.242 -12.180 -38.026  1.00  0.00     0.159 HD
ATOM     25  H   UNL     1       5.928 -11.919 -39.118  1.00  0.00     0.159 HD
ENDBRANCH  21  23
ENDBRANCH  12  17
ENDBRANCH   1   8
BRANCH   5  26
ATOM     26  N   UNL     1       5.867 -17.172 -44.249  1.00  0.00    -0.276 N 
ATOM     27  H   UNL     1       5.317 -17.639 -44.973  1.00  0.00     0.180 HD
BRANCH  26  28
ATOM     28  S   UNL     1       6.352 -18.295 -43.071  1.00  0.00     0.267 S 
ATOM     29  O   UNL     1       7.130 -17.563 -42.095  1.00  0.00    -0.201 OA
ATOM     30  O   UNL     1       6.924 -19.435 -43.754  1.00  0.00    -0.201 OA
BRANCH  28  31
ATOM     31  C   UNL     1       4.851 -18.763 -42.297  1.00  0.00     0.158 A 
ATOM     32  C   UNL     1       4.476 -20.092 -42.176  1.00  0.00     0.146 A 
ATOM     33  C   UNL     1       4.025 -17.767 -41.790  1.00  0.00     0.146 A 
ATOM     34  C   UNL     1       3.270 -20.427 -41.557  1.00  0.00     0.041 A 
ATOM     35  C   UNL     1       2.817 -18.089 -41.171  1.00  0.00     0.041 A 
ATOM     36  C   UNL     1       2.438 -19.425 -41.054  1.00  0.00     0.006 A 
ATOM     37  F   UNL     1       5.233 -21.089 -42.648  1.00  0.00    -0.205 F 
ATOM     38  F   UNL     1       4.352 -16.472 -41.918  1.00  0.00    -0.205 F 
ENDBRANCH  28  31
ENDBRANCH  26  28
ENDBRANCH   5  26
TORSDOF 7
ENDMDL
MODEL 5
REMARK VINA RESULT:    -8.498      4.909      8.122
REMARK INTER + INTRA:         -12.611
REMARK INTER:                 -12.731
REMARK INTRA:                   0.120
REMARK UNBOUND:                -0.884
REMARK SMILES CC(C)(C)c1nc(-c2cccc(NS(=O)(=O)c3c(F)cccc3F)c2F)c(-c2ccnc(N)n2)s1
REMARK SMILES IDX 8 1 9 2 10 3 11 4 12 5 25 6 26 7 7 8 5 9 6 10 35 11 27 12
REMARK SMILES IDX 2 13 1 14 3 15 4 16 28 17 29 18 34 19 30 20 32 21 31 22
REMARK SMILES IDX 33 23 13 26 14 28 15 29 16 30 17 31 18 32 23 33 20 34 22 35
REMARK SMILES IDX 21 36 19 37 24 38
REMARK H PARENT 33 24 33 25 13 27
ROOT
ATOM      1  C   UNL     1       0.960 -12.443 -45.545  1.00  0.00     0.040 A 
ATOM      2  C   UNL     1       0.845 -12.979 -46.835  1.00  0.00     0.013 A 
ATOM      3  C   UNL     1       0.373 -14.283 -47.019  1.00  0.00     0.003 A 
ATOM      4  C   UNL     1      -0.005 -15.055 -45.918  1.00  0.00     0.030 A 
ATOM      5  C   UNL     1       0.072 -14.521 -44.635  1.00  0.00     0.085 A 
ATOM      6  C   UNL     1       0.563 -13.222 -44.455  1.00  0.00     0.156 A 
ATOM      7  F   UNL     1       0.612 -12.724 -43.209  1.00  0.00    -0.204 F 
ENDROOT
BRANCH   1   8
ATOM      8  C   UNL     1       1.443 -11.082 -45.381  1.00  0.00     0.094 A 
ATOM      9  C   UNL     1       3.059  -9.557 -45.277  1.00  0.00     0.099 A 
ATOM     10  N   UNL     1       2.807 -10.844 -45.396  1.00  0.00    -0.240 NA
ATOM     11  S   UNL     1       1.657  -8.571 -45.085  1.00  0.00    -0.116 S 
ATOM     12  C   UNL     1       0.648  -9.964 -45.174  1.00  0.00     0.081 A 
BRANCH   9  13
ATOM     13  C   UNL     1       4.467  -8.960 -45.274  1.00  0.00     0.014 C 
ATOM     14  C   UNL     1       4.682  -8.114 -46.541  1.00  0.00     0.018 C 
ATOM     15  C   UNL     1       4.641  -8.039 -44.045  1.00  0.00     0.018 C 
ATOM     16  C   UNL     1       5.543 -10.060 -45.191  1.00  0.00     0.018 C 
ENDBRANCH   9  13
BRANCH  12  17
ATOM     17  C   UNL     1      -0.797  -9.810 -45.007  1.00  0.00     0.088 A 
ATOM     18  C   UNL     1      -1.620  -9.481 -46.063  1.00  0.00     0.050 A 
ATOM     19  N   UNL     1      -1.254 -10.004 -43.753  1.00  0.00    -0.212 NA
ATOM     20  C   UNL     1      -2.950  -9.346 -45.752  1.00  0.00     0.117 A 
ATOM     21  C   UNL     1      -2.567  -9.866 -43.565  1.00  0.00     0.220 A 
ATOM     22  N   UNL     1      -3.443  -9.522 -44.514  1.00  0.00    -0.222 NA
BRANCH  21  23
ATOM     23  N   UNL     1      -3.047 -10.044 -42.284  1.00  0.00    -0.368 N 
ATOM     24  H   UNL     1      -3.071 -11.032 -42.065  1.00  0.00     0.159 HD
ATOM     25  H   UNL     1      -2.548  -9.441 -41.642  1.00  0.00     0.159 HD
ENDBRANCH  21  23
ENDBRANCH  12  17
ENDBRANCH   1   8
BRANCH   5  26
ATOM     26  N   UNL     1      -0.365 -15.262 -43.491  1.00  0.00    -0.276 N 
ATOM     27  H   UNL     1      -0.842 -14.719 -42.767  1.00  0.00     0.180 HD
BRANCH  26  28
ATOM     28  S   UNL     1      -1.180 -16.730 -43.747  1.00  0.00     0.267 S 
ATOM     29  O   UNL     1      -0.779 -17.205 -45.053  1.00  0.00    -0.201 OA
ATOM     30  O   UNL     1      -2.579 -16.519 -43.444  1.00  0.00    -0.201 OA
BRANCH  28  31
ATOM     31  C   UNL     1      -0.477 -17.811 -42.560  1.00  0.00     0.158 A 
ATOM     32  C   UNL     1       0.755 -17.552 -41.978  1.00  0.00     0.146 A 
ATOM     33  C   UNL     1      -1.183 -18.951 -42.197  1.00  0.00     0.146 A 
ATOM     34  C   UNL     1       1.286 -18.438 -41.039  1.00  0.00     0.041 A 
ATOM     35  C   UNL     1      -0.662 -19.845 -41.261  1.00  0.00     0.041 A 
ATOM     36  C   UNL     1       0.578 -19.587 -40.679  1.00  0.00     0.006 A 
ATOM     37  F   UNL     1       1.476 -16.471 -42.292  1.00  0.00    -0.205 F 
ATOM     38  F   UNL     1      -2.364 -19.237 -42.765  1.00  0.00    -0.205 F 
ENDBRANCH  28  31
ENDBRANCH  26  28
ENDBRANCH   5  26
TORSDOF 7
ENDMDL
MODEL 6
REMARK VINA RESULT:    -8.383     10.392     12.923
REMARK INTER + INTRA:         -12.452
REMARK INTER:                 -11.526
REMARK INTRA:                  -0.926
REMARK UNBOUND:                -0.884
REMARK SMILES CC(C)(C)c1nc(-c2cccc(NS(=O)(=O)c3c(F)cccc3F)c2F)c(-c2ccnc(N)n2)s1
REMARK SMILES IDX 8 1 9 2 10 3 11 4 12 5 25 6 26 7 7 8 5 9 6 10 35 11 27 12
REMARK SMILES IDX 2 13 1 14 3 15 4 16 28 17 29 18 34 19 30 20 32 21 31 22
REMARK SMILES IDX 33 23 13 26 14 28 15 29 16 30 17 31 18 32 23 33 20 34 22 35
REMARK SMILES IDX 21 36 19 37 24 38
REMARK H PARENT 33 24 33 25 13 27
ROOT
ATOM      1  C   UNL     1       6.599 -19.502 -41.518  1.00  0.00     0.040 A 
ATOM      2  C   UNL     1       7.092 -18.959 -40.325  1.00  0.00     0.013 A 
ATOM      3  C   UNL     1       6.251 -18.227 -39.480  1.00  0.00     0.003 A 
ATOM      4  C   UNL     1       4.906 -18.048 -39.811  1.00  0.00     0.030 A 
ATOM      5  C   UNL     1       4.397 -18.612 -40.977  1.00  0.00     0.085 A 
ATOM      6  C   UNL     1       5.247 -19.328 -41.828  1.00  0.00     0.156 A 
ATOM      7  F   UNL     1       4.728 -19.876 -42.938  1.00  0.00    -0.204 F 
ENDROOT
BRANCH   1   8
ATOM      8  C   UNL     1       7.489 -20.269 -42.374  1.00  0.00     0.094 A 
ATOM      9  C   UNL     1       8.790 -22.021 -42.807  1.00  0.00     0.099 A 
ATOM     10  N   UNL     1       8.048 -21.439 -41.887  1.00  0.00    -0.240 NA
ATOM     11  S   UNL     1       8.893 -21.152 -44.293  1.00  0.00    -0.116 S 
ATOM     12  C   UNL     1       7.871 -19.920 -43.661  1.00  0.00     0.081 A 
BRANCH   9  13
ATOM     13  C   UNL     1       9.534 -23.339 -42.594  1.00  0.00     0.014 C 
ATOM     14  C   UNL     1      10.246 -23.328 -41.230  1.00  0.00     0.018 C 
ATOM     15  C   UNL     1       8.528 -24.513 -42.600  1.00  0.00     0.018 C 
ATOM     16  C   UNL     1      10.559 -23.594 -43.716  1.00  0.00     0.018 C 
ENDBRANCH   9  13
BRANCH  12  17
ATOM     17  C   UNL     1       7.580 -18.743 -44.480  1.00  0.00     0.088 A 
ATOM     18  C   UNL     1       8.380 -17.620 -44.448  1.00  0.00     0.050 A 
ATOM     19  N   UNL     1       6.479 -18.839 -45.252  1.00  0.00    -0.212 NA
ATOM     20  C   UNL     1       7.970 -16.584 -45.251  1.00  0.00     0.117 A 
ATOM     21  C   UNL     1       6.182 -17.780 -46.007  1.00  0.00     0.220 A 
ATOM     22  N   UNL     1       6.874 -16.637 -46.026  1.00  0.00    -0.222 NA
BRANCH  21  23
ATOM     23  N   UNL     1       5.048 -17.856 -46.789  1.00  0.00    -0.368 N 
ATOM     24  H   UNL     1       5.015 -17.062 -47.416  1.00  0.00     0.159 HD
ATOM     25  H   UNL     1       4.979 -18.776 -47.206  1.00  0.00     0.159 HD
ENDBRANCH  21  23
ENDBRANCH  12  17
ENDBRANCH   1   8
BRANCH   5  26
ATOM     26  N   UNL     1       3.010 -18.500 -41.316  1.00  0.00    -0.276 N 
ATOM     27  H   UNL     1       2.793 -18.548 -42.314  1.00  0.00     0.180 HD
BRANCH  26  28
ATOM     28  S   UNL     1       1.888 -19.419 -40.432  1.00  0.00     0.267 S 
ATOM     29  O   UNL     1       1.676 -18.723 -39.181  1.00  0.00    -0.201 OA
ATOM     30  O   UNL     1       2.342 -20.793 -40.434  1.00  0.00    -0.201 OA
BRANCH  28  31
ATOM     31  C   UNL     1       0.411 -19.283 -41.362  1.00  0.00     0.158 A 
ATOM     32  C   UNL     1      -0.427 -20.370 -41.564  1.00  0.00     0.146 A 
ATOM     33  C   UNL     1       0.076 -18.048 -41.904  1.00  0.00     0.146 A 
ATOM     34  C   UNL     1      -1.595 -20.225 -42.316  1.00  0.00     0.041 A 
ATOM     35  C   UNL     1      -1.087 -17.891 -42.658  1.00  0.00     0.041 A 
ATOM     36  C   UNL     1      -1.927 -18.985 -42.864  1.00  0.00     0.006 A 
ATOM     37  F   UNL     1      -0.151 -21.581 -41.067  1.00  0.00    -0.205 F 
ATOM     38  F   UNL     1       0.882 -16.988 -41.745  1.00  0.00    -0.205 F 
ENDBRANCH  28  31
ENDBRANCH  26  28
ENDBRANCH   5  26
TORSDOF 7
ENDMDL
MODEL 7
REMARK VINA RESULT:    -8.285      8.886     12.754
REMARK INTER + INTRA:         -12.317
REMARK INTER:                 -10.976
REMARK INTRA:                  -1.341
REMARK UNBOUND:                -0.884
REMARK SMILES CC(C)(C)c1nc(-c2cccc(NS(=O)(=O)c3c(F)cccc3F)c2F)c(-c2ccnc(N)n2)s1
REMARK SMILES IDX 8 1 9 2 10 3 11 4 12 5 25 6 26 7 7 8 5 9 6 10 35 11 27 12
REMARK SMILES IDX 2 13 1 14 3 15 4 16 28 17 29 18 34 19 30 20 32 21 31 22
REMARK SMILES IDX 33 23 13 26 14 28 15 29 16 30 17 31 18 32 23 33 20 34 22 35
REMARK SMILES IDX 21 36 19 37 24 38
REMARK H PARENT 33 24 33 25 13 27
ROOT
ATOM      1  C   UNL     1       6.872 -13.728 -44.936  1.00  0.00     0.040 A 
ATOM      2  C   UNL     1       5.781 -14.473 -44.469  1.00  0.00     0.013 A 
ATOM      3  C   UNL     1       5.725 -15.854 -44.683  1.00  0.00     0.003 A 
ATOM      4  C   UNL     1       6.766 -16.505 -45.349  1.00  0.00     0.030 A 
ATOM      5  C   UNL     1       7.871 -15.780 -45.786  1.00  0.00     0.085 A 
ATOM      6  C   UNL     1       7.913 -14.395 -45.586  1.00  0.00     0.156 A 
ATOM      7  F   UNL     1       8.997 -13.721 -46.003  1.00  0.00    -0.204 F 
ENDROOT
BRANCH   1   8
ATOM      8  C   UNL     1       6.912 -12.296 -44.691  1.00  0.00     0.094 A 
ATOM      9  C   UNL     1       6.592 -10.178 -45.292  1.00  0.00     0.099 A 
ATOM     10  N   UNL     1       6.534 -11.428 -45.702  1.00  0.00    -0.240 NA
ATOM     11  S   UNL     1       7.161  -9.984 -43.676  1.00  0.00    -0.116 S 
ATOM     12  C   UNL     1       7.333 -11.689 -43.516  1.00  0.00     0.081 A 
BRANCH   9  13
ATOM     13  C   UNL     1       6.223  -8.977 -46.163  1.00  0.00     0.014 C 
ATOM     14  C   UNL     1       4.725  -9.023 -46.516  1.00  0.00     0.018 C 
ATOM     15  C   UNL     1       6.493  -7.667 -45.388  1.00  0.00     0.018 C 
ATOM     16  C   UNL     1       7.062  -8.940 -47.454  1.00  0.00     0.018 C 
ENDBRANCH   9  13
BRANCH  12  17
ATOM     17  C   UNL     1       7.883 -12.239 -42.277  1.00  0.00     0.088 A 
ATOM     18  C   UNL     1       9.109 -12.868 -42.242  1.00  0.00     0.050 A 
ATOM     19  N   UNL     1       7.103 -12.091 -41.187  1.00  0.00    -0.212 NA
ATOM     20  C   UNL     1       9.486 -13.355 -41.015  1.00  0.00     0.117 A 
ATOM     21  C   UNL     1       7.573 -12.586 -40.042  1.00  0.00     0.220 A 
ATOM     22  N   UNL     1       8.733 -13.237 -39.909  1.00  0.00    -0.222 NA
BRANCH  21  23
ATOM     23  N   UNL     1       6.778 -12.458 -38.921  1.00  0.00    -0.368 N 
ATOM     24  H   UNL     1       6.651 -11.478 -38.705  1.00  0.00     0.159 HD
ATOM     25  H   UNL     1       5.942 -13.020 -39.026  1.00  0.00     0.159 HD
ENDBRANCH  21  23
ENDBRANCH  12  17
ENDBRANCH   1   8
BRANCH   5  26
ATOM     26  N   UNL     1       8.984 -16.424 -46.417  1.00  0.00    -0.276 N 
ATOM     27  H   UNL     1       9.448 -15.886 -47.152  1.00  0.00     0.180 HD
BRANCH  26  28
ATOM     28  S   UNL     1      10.141 -17.180 -45.430  1.00  0.00     0.267 S 
ATOM     29  O   UNL     1      10.454 -18.447 -46.055  1.00  0.00    -0.201 OA
ATOM     30  O   UNL     1       9.657 -17.138 -44.067  1.00  0.00    -0.201 OA
BRANCH  28  31
ATOM     31  C   UNL     1      11.555 -16.158 -45.586  1.00  0.00     0.158 A 
ATOM     32  C   UNL     1      12.263 -15.718 -44.478  1.00  0.00     0.146 A 
ATOM     33  C   UNL     1      11.972 -15.788 -46.859  1.00  0.00     0.146 A 
ATOM     34  C   UNL     1      13.383 -14.901 -44.640  1.00  0.00     0.041 A 
ATOM     35  C   UNL     1      13.088 -14.970 -47.034  1.00  0.00     0.041 A 
ATOM     36  C   UNL     1      13.798 -14.525 -45.920  1.00  0.00     0.006 A 
ATOM     37  F   UNL     1      11.904 -16.043 -43.231  1.00  0.00    -0.205 F 
ATOM     38  F   UNL     1      11.289 -16.178 -47.946  1.00  0.00    -0.205 F 
ENDBRANCH  28  31
ENDBRANCH  26  28
ENDBRANCH   5  26
TORSDOF 7
ENDMDL
MODEL 8
REMARK VINA RESULT:    -8.256      7.813     10.299
REMARK INTER + INTRA:         -12.277
REMARK INTER:                 -11.598
REMARK INTRA:                  -0.680
REMARK UNBOUND:                -0.884
REMARK SMILES CC(C)(C)c1nc(-c2cccc(NS(=O)(=O)c3c(F)cccc3F)c2F)c(-c2ccnc(N)n2)s1
REMARK SMILES IDX 8 1 9 2 10 3 11 4 12 5 25 6 26 7 7 8 5 9 6 10 35 11 27 12
REMARK SMILES IDX 2 13 1 14 3 15 4 16 28 17 29 18 34 19 30 20 32 21 31 22
REMARK SMILES IDX 33 23 13 26 14 28 15 29 16 30 17 31 18 32 23 33 20 34 22 35
REMARK SMILES IDX 21 36 19 37 24 38
REMARK H PARENT 33 24 33 25 13 27
ROOT
ATOM      1  C   UNL     1       6.418 -13.921 -44.448  1.00  0.00     0.040 A 
ATOM      2  C   UNL     1       7.157 -14.627 -45.406  1.00  0.00     0.013 A 
ATOM      3  C   UNL     1       6.988 -16.008 -45.553  1.00  0.00     0.003 A 
ATOM      4  C   UNL     1       6.065 -16.691 -44.758  1.00  0.00     0.030 A 
ATOM      5  C   UNL     1       5.300 -15.995 -43.827  1.00  0.00     0.085 A 
ATOM      6  C   UNL     1       5.487 -14.616 -43.671  1.00  0.00     0.156 A 
ATOM      7  F   UNL     1       4.725 -13.965 -42.777  1.00  0.00    -0.204 F 
ENDROOT
BRANCH   1   8
ATOM      8  C   UNL     1       6.603 -12.485 -44.321  1.00  0.00     0.094 A 
ATOM      9  C   UNL     1       6.408 -10.395 -45.058  1.00  0.00     0.099 A 
ATOM     10  N   UNL     1       6.206 -11.661 -45.361  1.00  0.00    -0.240 NA
ATOM     11  S   UNL     1       7.140 -10.139 -43.518  1.00  0.00    -0.116 S 
ATOM     12  C   UNL     1       7.181 -11.838 -43.240  1.00  0.00     0.081 A 
BRANCH   9  13
ATOM     13  C   UNL     1       6.062  -9.231 -45.987  1.00  0.00     0.014 C 
ATOM     14  C   UNL     1       6.386  -7.893 -45.298  1.00  0.00     0.018 C 
ATOM     15  C   UNL     1       6.909  -9.322 -47.277  1.00  0.00     0.018 C 
ATOM     16  C   UNL     1       4.577  -9.261 -46.397  1.00  0.00     0.018 C 
ENDBRANCH   9  13
BRANCH  12  17
ATOM     17  C   UNL     1       7.796 -12.345 -42.013  1.00  0.00     0.088 A 
ATOM     18  C   UNL     1       9.049 -12.920 -42.013  1.00  0.00     0.050 A 
ATOM     19  N   UNL     1       7.048 -12.216 -40.900  1.00  0.00    -0.212 NA
ATOM     20  C   UNL     1       9.488 -13.373 -40.793  1.00  0.00     0.117 A 
ATOM     21  C   UNL     1       7.577 -12.674 -39.765  1.00  0.00     0.220 A 
ATOM     22  N   UNL     1       8.768 -13.272 -39.663  1.00  0.00    -0.222 NA
BRANCH  21  23
ATOM     23  N   UNL     1       6.816 -12.565 -38.619  1.00  0.00    -0.368 N 
ATOM     24  H   UNL     1       5.985 -12.021 -38.814  1.00  0.00     0.159 HD
ATOM     25  H   UNL     1       6.682 -13.481 -38.207  1.00  0.00     0.159 HD
ENDBRANCH  21  23
ENDBRANCH  12  17
ENDBRANCH   1   8
BRANCH   5  26
ATOM     26  N   UNL     1       4.302 -16.654 -43.039  1.00  0.00    -0.276 N 
ATOM     27  H   UNL     1       3.490 -17.002 -43.554  1.00  0.00     0.180 HD
BRANCH  26  28
ATOM     28  S   UNL     1       4.809 -17.809 -41.902  1.00  0.00     0.267 S 
ATOM     29  O   UNL     1       5.162 -17.082 -40.701  1.00  0.00    -0.201 OA
ATOM     30  O   UNL     1       5.778 -18.670 -42.546  1.00  0.00    -0.201 OA
BRANCH  28  31
ATOM     31  C   UNL     1       3.353 -18.718 -41.553  1.00  0.00     0.158 A 
ATOM     32  C   UNL     1       2.118 -18.099 -41.428  1.00  0.00     0.146 A 
ATOM     33  C   UNL     1       3.448 -20.096 -41.404  1.00  0.00     0.146 A 
ATOM     34  C   UNL     1       0.979 -18.856 -41.145  1.00  0.00     0.041 A 
ATOM     35  C   UNL     1       2.318 -20.863 -41.119  1.00  0.00     0.041 A 
ATOM     36  C   UNL     1       1.077 -20.240 -40.989  1.00  0.00     0.006 A 
ATOM     37  F   UNL     1       1.971 -16.776 -41.561  1.00  0.00    -0.205 F 
ATOM     38  F   UNL     1       4.634 -20.716 -41.493  1.00  0.00    -0.205 F 
ENDBRANCH  28  31
ENDBRANCH  26  28
ENDBRANCH   5  26
TORSDOF 7
ENDMDL
MODEL 9
REMARK VINA RESULT:    -8.250      6.023      9.181
REMARK INTER + INTRA:         -12.268
REMARK INTER:                 -11.026
REMARK INTRA:                  -1.242
REMARK UNBOUND:                -0.884
REMARK SMILES CC(C)(C)c1nc(-c2cccc(NS(=O)(=O)c3c(F)cccc3F)c2F)c(-c2ccnc(N)n2)s1
REMARK SMILES IDX 8 1 9 2 10 3 11 4 12 5 25 6 26 7 7 8 5 9 6 10 35 11 27 12
REMARK SMILES IDX 2 13 1 14 3 15 4 16 28 17 29 18 34 19 30 20 32 21 31 22
REMARK SMILES IDX 33 23 13 26 14 28 15 29 16 30 17 31 18 32 23 33 20 34 22 35
REMARK SMILES IDX 21 36 19 37 24 38
REMARK H PARENT 33 24 33 25 13 27
ROOT
ATOM      1  C   UNL     1       5.834 -13.194 -43.656  1.00  0.00     0.040 A 
ATOM      2  C   UNL     1       6.410 -13.522 -42.421  1.00  0.00     0.013 A 
ATOM      3  C   UNL     1       7.540 -12.836 -41.964  1.00  0.00     0.003 A 
ATOM      4  C   UNL     1       8.092 -11.805 -42.728  1.00  0.00     0.030 A 
ATOM      5  C   UNL     1       7.508 -11.447 -43.939  1.00  0.00     0.085 A 
ATOM      6  C   UNL     1       6.388 -12.149 -44.400  1.00  0.00     0.156 A 
ATOM      7  F   UNL     1       5.833 -11.774 -45.564  1.00  0.00    -0.204 F 
ENDROOT
BRANCH   1   8
ATOM      8  C   UNL     1       4.653 -13.913 -44.104  1.00  0.00     0.094 A 
ATOM      9  C   UNL     1       2.454 -14.142 -44.352  1.00  0.00     0.099 A 
ATOM     10  N   UNL     1       3.401 -13.384 -43.839  1.00  0.00    -0.240 NA
ATOM     11  S   UNL     1       3.028 -15.567 -45.135  1.00  0.00    -0.116 S 
ATOM     12  C   UNL     1       4.652 -15.132 -44.767  1.00  0.00     0.081 A 
BRANCH   9  13
ATOM     13  C   UNL     1       0.961 -13.828 -44.249  1.00  0.00     0.014 C 
ATOM     14  C   UNL     1       0.234 -14.960 -43.503  1.00  0.00     0.018 C 
ATOM     15  C   UNL     1       0.756 -12.519 -43.452  1.00  0.00     0.018 C 
ATOM     16  C   UNL     1       0.331 -13.631 -45.642  1.00  0.00     0.018 C 
ENDBRANCH   9  13
BRANCH  12  17
ATOM     17  C   UNL     1       5.737 -16.039 -45.142  1.00  0.00     0.088 A 
ATOM     18  C   UNL     1       5.740 -17.364 -44.762  1.00  0.00     0.050 A 
ATOM     19  N   UNL     1       6.725 -15.483 -45.871  1.00  0.00    -0.212 NA
ATOM     20  C   UNL     1       6.834 -18.089 -45.165  1.00  0.00     0.117 A 
ATOM     21  C   UNL     1       7.732 -16.282 -46.225  1.00  0.00     0.220 A 
ATOM     22  N   UNL     1       7.843 -17.569 -45.884  1.00  0.00    -0.222 NA
BRANCH  21  23
ATOM     23  N   UNL     1       8.760 -15.723 -46.957  1.00  0.00    -0.368 N 
ATOM     24  H   UNL     1       8.596 -14.730 -47.069  1.00  0.00     0.159 HD
ATOM     25  H   UNL     1       9.652 -16.002 -46.566  1.00  0.00     0.159 HD
ENDBRANCH  21  23
ENDBRANCH  12  17
ENDBRANCH   1   8
BRANCH   5  26
ATOM     26  N   UNL     1       8.011 -10.355 -44.717  1.00  0.00    -0.276 N 
ATOM     27  H   UNL     1       7.994 -10.489 -45.731  1.00  0.00     0.180 HD
BRANCH  26  28
ATOM     28  S   UNL     1       7.493  -8.785 -44.329  1.00  0.00     0.267 S 
ATOM     29  O   UNL     1       8.384  -7.873 -45.013  1.00  0.00    -0.201 OA
ATOM     30  O   UNL     1       7.337  -8.712 -42.892  1.00  0.00    -0.201 OA
BRANCH  28  31
ATOM     31  C   UNL     1       5.925  -8.660 -45.099  1.00  0.00     0.158 A 
ATOM     32  C   UNL     1       4.774  -8.397 -44.373  1.00  0.00     0.146 A 
ATOM     33  C   UNL     1       5.845  -8.824 -46.477  1.00  0.00     0.146 A 
ATOM     34  C   UNL     1       3.540  -8.309 -45.021  1.00  0.00     0.041 A 
ATOM     35  C   UNL     1       4.619  -8.740 -47.135  1.00  0.00     0.041 A 
ATOM     36  C   UNL     1       3.460  -8.480 -46.404  1.00  0.00     0.006 A 
ATOM     37  F   UNL     1       4.794  -8.232 -43.045  1.00  0.00    -0.205 F 
ATOM     38  F   UNL     1       6.940  -9.105 -47.199  1.00  0.00    -0.205 F 
ENDBRANCH  28  31
ENDBRANCH  26  28
ENDBRANCH   5  26
TORSDOF 7
ENDMDL
MODEL 10
REMARK VINA RESULT:    -8.241      3.743      6.234
REMARK INTER + INTRA:         -12.255
REMARK INTER:                 -12.229
REMARK INTRA:                  -0.027
REMARK UNBOUND:                -0.884
REMARK SMILES CC(C)(C)c1nc(-c2cccc(NS(=O)(=O)c3c(F)cccc3F)c2F)c(-c2ccnc(N)n2)s1
REMARK SMILES IDX 8 1 9 2 10 3 11 4 12 5 25 6 26 7 7 8 5 9 6 10 35 11 27 12
REMARK SMILES IDX 2 13 1 14 3 15 4 16 28 17 29 18 34 19 30 20 32 21 31 22
REMARK SMILES IDX 33 23 13 26 14 28 15 29 16 30 17 31 18 32 23 33 20 34 22 35
REMARK SMILES IDX 21 36 19 37 24 38
REMARK H PARENT 33 24 33 25 13 27
ROOT
ATOM      1  C   UNL     1       1.106 -12.987 -45.240  1.00  0.00     0.040 A 
ATOM      2  C   UNL     1       0.845 -13.027 -46.616  1.00  0.00     0.013 A 
ATOM      3  C   UNL     1      -0.252 -12.341 -47.148  1.00  0.00     0.003 A 
ATOM      4  C   UNL     1      -1.085 -11.594 -46.312  1.00  0.00     0.030 A 
ATOM      5  C   UNL     1      -0.815 -11.518 -44.949  1.00  0.00     0.085 A 
ATOM      6  C   UNL     1       0.273 -12.222 -44.420  1.00  0.00     0.156 A 
ATOM      7  F   UNL     1       0.522 -12.119 -43.104  1.00  0.00    -0.204 F 
ENDROOT
BRANCH   1   8
ATOM      8  C   UNL     1       2.259 -13.698 -44.713  1.00  0.00     0.094 A 
ATOM      9  C   UNL     1       4.441 -13.931 -44.349  1.00  0.00     0.099 A 
ATOM     10  N   UNL     1       3.526 -13.184 -44.931  1.00  0.00    -0.240 NA
ATOM     11  S   UNL     1       3.819 -15.329 -43.553  1.00  0.00    -0.116 S 
ATOM     12  C   UNL     1       2.218 -14.896 -44.015  1.00  0.00     0.081 A 
BRANCH   9  13
ATOM     13  C   UNL     1       5.939 -13.628 -44.387  1.00  0.00     0.014 C 
ATOM     14  C   UNL     1       6.175 -12.205 -44.923  1.00  0.00     0.018 C 
ATOM     15  C   UNL     1       6.524 -13.705 -42.958  1.00  0.00     0.018 C 
ATOM     16  C   UNL     1       6.698 -14.647 -45.259  1.00  0.00     0.018 C 
ENDBRANCH   9  13
BRANCH  12  17
ATOM     17  C   UNL     1       1.110 -15.786 -43.667  1.00  0.00     0.088 A 
ATOM     18  C   UNL     1      -0.056 -15.816 -44.402  1.00  0.00     0.050 A 
ATOM     19  N   UNL     1       1.313 -16.559 -42.581  1.00  0.00    -0.212 NA
ATOM     20  C   UNL     1      -1.018 -16.682 -43.943  1.00  0.00     0.117 A 
ATOM     21  C   UNL     1       0.320 -17.377 -42.233  1.00  0.00     0.220 A 
ATOM     22  N   UNL     1      -0.858 -17.460 -42.860  1.00  0.00    -0.222 NA
BRANCH  21  23
ATOM     23  N   UNL     1       0.505 -18.162 -41.113  1.00  0.00    -0.368 N 
ATOM     24  H   UNL     1       1.448 -18.040 -40.766  1.00  0.00     0.159 HD
ATOM     25  H   UNL     1      -0.252 -18.009 -40.457  1.00  0.00     0.159 HD
ENDBRANCH  21  23
ENDBRANCH  12  17
ENDBRANCH   1   8
BRANCH   5  26
ATOM     26  N   UNL     1      -1.612 -10.712 -44.075  1.00  0.00    -0.276 N 
ATOM     27  H   UNL     1      -1.398 -10.796 -43.078  1.00  0.00     0.180 HD
BRANCH  26  28
ATOM     28  S   UNL     1      -1.855  -9.081 -44.482  1.00  0.00     0.267 S 
ATOM     29  O   UNL     1      -1.947  -9.023 -45.925  1.00  0.00    -0.201 OA
ATOM     30  O   UNL     1      -0.862  -8.296 -43.781  1.00  0.00    -0.201 OA
BRANCH  28  31
ATOM     31  C   UNL     1      -3.447  -8.723 -43.843  1.00  0.00     0.158 A 
ATOM     32  C   UNL     1      -4.446  -9.683 -43.796  1.00  0.00     0.146 A 
ATOM     33  C   UNL     1      -3.702  -7.442 -43.369  1.00  0.00     0.146 A 
ATOM     34  C   UNL     1      -5.705  -9.361 -43.283  1.00  0.00     0.041 A 
ATOM     35  C   UNL     1      -4.955  -7.107 -42.857  1.00  0.00     0.041 A 
ATOM     36  C   UNL     1      -5.961  -8.071 -42.813  1.00  0.00     0.006 A 
ATOM     37  F   UNL     1      -4.255 -10.931 -44.239  1.00  0.00    -0.205 F 
ATOM     38  F   UNL     1      -2.760  -6.488 -43.428  1.00  0.00    -0.205 F 
ENDBRANCH  28  31
ENDBRANCH  26  28
ENDBRANCH   5  26
TORSDOF 7
ENDMDL
MODEL 11
REMARK VINA RESULT:    -8.229      5.479      8.690
REMARK INTER + INTRA:         -12.240
REMARK INTER:                 -11.208
REMARK INTRA:                  -1.032
REMARK UNBOUND:                -0.884
REMARK SMILES CC(C)(C)c1nc(-c2cccc(NS(=O)(=O)c3c(F)cccc3F)c2F)c(-c2ccnc(N)n2)s1
REMARK SMILES IDX 8 1 9 2 10 3 11 4 12 5 25 6 26 7 7 8 5 9 6 10 35 11 27 12
REMARK SMILES IDX 2 13 1 14 3 15 4 16 28 17 29 18 34 19 30 20 32 21 31 22
REMARK SMILES IDX 33 23 13 26 14 28 15 29 16 30 17 31 18 32 23 33 20 34 22 35
REMARK SMILES IDX 21 36 19 37 24 38
REMARK H PARENT 33 24 33 25 13 27
ROOT
ATOM      1  C   UNL     1       4.649  -9.740 -45.878  1.00  0.00     0.040 A 
ATOM      2  C   UNL     1       4.938  -9.102 -47.092  1.00  0.00     0.013 A 
ATOM      3  C   UNL     1       6.264  -8.885 -47.478  1.00  0.00     0.003 A 
ATOM      4  C   UNL     1       7.313  -9.320 -46.665  1.00  0.00     0.030 A 
ATOM      5  C   UNL     1       7.038  -9.986 -45.473  1.00  0.00     0.085 A 
ATOM      6  C   UNL     1       5.709 -10.183 -45.082  1.00  0.00     0.156 A 
ATOM      7  F   UNL     1       5.470 -10.842 -43.937  1.00  0.00    -0.204 F 
ENDROOT
BRANCH   1   8
ATOM      8  C   UNL     1       3.262  -9.964 -45.504  1.00  0.00     0.094 A 
ATOM      9  C   UNL     1       1.375 -11.141 -45.527  1.00  0.00     0.099 A 
ATOM     10  N   UNL     1       2.602 -11.075 -46.002  1.00  0.00    -0.240 NA
ATOM     11  S   UNL     1       0.939  -9.831 -44.494  1.00  0.00    -0.116 S 
ATOM     12  C   UNL     1       2.500  -9.135 -44.694  1.00  0.00     0.081 A 
BRANCH   9  13
ATOM     13  C   UNL     1       0.387 -12.257 -45.870  1.00  0.00     0.014 C 
ATOM     14  C   UNL     1      -0.990 -11.657 -46.205  1.00  0.00     0.018 C 
ATOM     15  C   UNL     1       0.887 -13.033 -47.110  1.00  0.00     0.018 C 
ATOM     16  C   UNL     1       0.251 -13.263 -44.710  1.00  0.00     0.018 C 
ENDBRANCH   9  13
BRANCH  12  17
ATOM     17  C   UNL     1       2.795  -7.849 -44.061  1.00  0.00     0.088 A 
ATOM     18  C   UNL     1       2.339  -6.659 -44.587  1.00  0.00     0.050 A 
ATOM     19  N   UNL     1       3.545  -7.918 -42.942  1.00  0.00    -0.212 NA
ATOM     20  C   UNL     1       2.714  -5.531 -43.900  1.00  0.00     0.117 A 
ATOM     21  C   UNL     1       3.837  -6.763 -42.344  1.00  0.00     0.220 A 
ATOM     22  N   UNL     1       3.468  -5.557 -42.789  1.00  0.00    -0.222 NA
BRANCH  21  23
ATOM     23  N   UNL     1       4.618  -6.815 -41.208  1.00  0.00    -0.368 N 
ATOM     24  H   UNL     1       5.596  -6.821 -41.469  1.00  0.00     0.159 HD
ATOM     25  H   UNL     1       4.319  -6.103 -40.552  1.00  0.00     0.159 HD
ENDBRANCH  21  23
ENDBRANCH  12  17
ENDBRANCH   1   8
BRANCH   5  26
ATOM     26  N   UNL     1       8.088 -10.499 -44.646  1.00  0.00    -0.276 N 
ATOM     27  H   UNL     1       8.138 -10.109 -43.702  1.00  0.00     0.180 HD
BRANCH  26  28
ATOM     28  S   UNL     1       8.325 -12.180 -44.596  1.00  0.00     0.267 S 
ATOM     29  O   UNL     1       9.725 -12.410 -44.877  1.00  0.00    -0.201 OA
ATOM     30  O   UNL     1       7.304 -12.795 -45.417  1.00  0.00    -0.201 OA
BRANCH  28  31
ATOM     31  C   UNL     1       8.056 -12.589 -42.914  1.00  0.00     0.158 A 
ATOM     32  C   UNL     1       7.796 -11.618 -41.959  1.00  0.00     0.146 A 
ATOM     33  C   UNL     1       8.101 -13.927 -42.539  1.00  0.00     0.146 A 
ATOM     34  C   UNL     1       7.590 -11.982 -40.627  1.00  0.00     0.041 A 
ATOM     35  C   UNL     1       7.900 -14.302 -41.211  1.00  0.00     0.041 A 
ATOM     36  C   UNL     1       7.643 -13.325 -40.250  1.00  0.00     0.006 A 
ATOM     37  F   UNL     1       7.742 -10.317 -42.266  1.00  0.00    -0.205 F 
ATOM     38  F   UNL     1       8.378 -14.883 -43.438  1.00  0.00    -0.205 F 
ENDBRANCH  28  31
ENDBRANCH  26  28
ENDBRANCH   5  26
TORSDOF 7
ENDMDL
MODEL 12
REMARK VINA RESULT:    -8.197      8.823     12.814
REMARK INTER + INTRA:         -12.195
REMARK INTER:                 -10.456
REMARK INTRA:                  -1.739
REMARK UNBOUND:                -0.884
REMARK SMILES CC(C)(C)c1nc(-c2cccc(NS(=O)(=O)c3c(F)cccc3F)c2F)c(-c2ccnc(N)n2)s1
REMARK SMILES IDX 8 1 9 2 10 3 11 4 12 5 25 6 26 7 7 8 5 9 6 10 35 11 27 12
REMARK SMILES IDX 2 13 1 14 3 15 4 16 28 17 29 18 34 19 30 20 32 21 31 22
REMARK SMILES IDX 33 23 13 26 14 28 15 29 16 30 17 31 18 32 23 33 20 34 22 35
REMARK SMILES IDX 21 36 19 37 24 38
REMARK H PARENT 33 24 33 25 13 27
ROOT
ATOM      1  C   UNL     1       7.871 -12.371 -42.122  1.00  0.00     0.040 A 
ATOM      2  C   UNL     1       7.324 -12.386 -40.832  1.00  0.00     0.013 A 
ATOM      3  C   UNL     1       7.993 -13.034 -39.788  1.00  0.00     0.003 A 
ATOM      4  C   UNL     1       9.223 -13.655 -40.020  1.00  0.00     0.030 A 
ATOM      5  C   UNL     1       9.792 -13.616 -41.290  1.00  0.00     0.085 A 
ATOM      6  C   UNL     1       9.109 -12.983 -42.335  1.00  0.00     0.156 A 
ATOM      7  F   UNL     1       9.687 -12.945 -43.546  1.00  0.00    -0.204 F 
ENDROOT
BRANCH   1   8
ATOM      8  C   UNL     1       7.162 -11.682 -43.188  1.00  0.00     0.094 A 
ATOM      9  C   UNL     1       6.442  -9.846 -44.216  1.00  0.00     0.099 A 
ATOM     10  N   UNL     1       7.079 -10.300 -43.157  1.00  0.00    -0.240 NA
ATOM     11  S   UNL     1       5.862 -11.073 -45.279  1.00  0.00    -0.116 S 
ATOM     12  C   UNL     1       6.515 -12.291 -44.252  1.00  0.00     0.081 A 
BRANCH   9  13
ATOM     13  C   UNL     1       6.195  -8.362 -44.492  1.00  0.00     0.014 C 
ATOM     14  C   UNL     1       5.645  -7.676 -43.228  1.00  0.00     0.018 C 
ATOM     15  C   UNL     1       7.525  -7.672 -44.871  1.00  0.00     0.018 C 
ATOM     16  C   UNL     1       5.213  -8.163 -45.663  1.00  0.00     0.018 C 
ENDBRANCH   9  13
BRANCH  12  17
ATOM     17  C   UNL     1       6.299 -13.698 -44.588  1.00  0.00     0.088 A 
ATOM     18  C   UNL     1       5.430 -14.491 -43.869  1.00  0.00     0.050 A 
ATOM     19  N   UNL     1       7.013 -14.155 -45.636  1.00  0.00    -0.212 NA
ATOM     20  C   UNL     1       5.348 -15.798 -44.282  1.00  0.00     0.117 A 
ATOM     21  C   UNL     1       6.844 -15.437 -45.964  1.00  0.00     0.220 A 
ATOM     22  N   UNL     1       6.050 -16.294 -45.314  1.00  0.00    -0.222 NA
BRANCH  21  23
ATOM     23  N   UNL     1       7.582 -15.924 -47.023  1.00  0.00    -0.368 N 
ATOM     24  H   UNL     1       6.986 -16.017 -47.837  1.00  0.00     0.159 HD
ATOM     25  H   UNL     1       8.430 -15.381 -47.131  1.00  0.00     0.159 HD
ENDBRANCH  21  23
ENDBRANCH  12  17
ENDBRANCH   1   8
BRANCH   5  26
ATOM     26  N   UNL     1      11.079 -14.189 -41.548  1.00  0.00    -0.276 N 
ATOM     27  H   UNL     1      11.775 -14.062 -40.810  1.00  0.00     0.180 HD
BRANCH  26  28
ATOM     28  S   UNL     1      11.147 -15.777 -42.146  1.00  0.00     0.267 S 
ATOM     29  O   UNL     1       9.811 -16.320 -42.034  1.00  0.00    -0.201 OA
ATOM     30  O   UNL     1      12.262 -16.443 -41.508  1.00  0.00    -0.201 OA
BRANCH  28  31
ATOM     31  C   UNL     1      11.483 -15.566 -43.852  1.00  0.00     0.158 A 
ATOM     32  C   UNL     1      10.646 -16.082 -44.830  1.00  0.00     0.146 A 
ATOM     33  C   UNL     1      12.620 -14.858 -44.225  1.00  0.00     0.146 A 
ATOM     34  C   UNL     1      10.948 -15.898 -46.181  1.00  0.00     0.041 A 
ATOM     35  C   UNL     1      12.933 -14.670 -45.570  1.00  0.00     0.041 A 
ATOM     36  C   UNL     1      12.094 -15.191 -46.554  1.00  0.00     0.006 A 
ATOM     37  F   UNL     1       9.540 -16.772 -44.527  1.00  0.00    -0.205 F 
ATOM     38  F   UNL     1      13.460 -14.373 -43.299  1.00  0.00    -0.205 F 
ENDBRANCH  28  31
ENDBRANCH  26  28
ENDBRANCH   5  26
TORSDOF 7
ENDMDL
MODEL 13
REMARK VINA RESULT:    -8.195     10.160     11.925
REMARK INTER + INTRA:         -12.192
REMARK INTER:                 -11.272
REMARK INTRA:                  -0.920
REMARK UNBOUND:                -0.884
REMARK SMILES CC(C)(C)c1nc(-c2cccc(NS(=O)(=O)c3c(F)cccc3F)c2F)c(-c2ccnc(N)n2)s1
REMARK SMILES IDX 8 1 9 2 10 3 11 4 12 5 25 6 26 7 7 8 5 9 6 10 35 11 27 12
REMARK SMILES IDX 2 13 1 14 3 15 4 16 28 17 29 18 34 19 30 20 32 21 31 22
REMARK SMILES IDX 33 23 13 26 14 28 15 29 16 30 17 31 18 32 23 33 20 34 22 35
REMARK SMILES IDX 21 36 19 37 24 38
REMARK H PARENT 33 24 33 25 13 27
ROOT
ATOM      1  C   UNL     1       7.720 -15.806 -43.761  1.00  0.00     0.040 A 
ATOM      2  C   UNL     1       6.910 -15.523 -44.869  1.00  0.00     0.013 A 
ATOM      3  C   UNL     1       5.583 -15.963 -44.904  1.00  0.00     0.003 A 
ATOM      4  C   UNL     1       5.049 -16.672 -43.826  1.00  0.00     0.030 A 
ATOM      5  C   UNL     1       5.834 -16.929 -42.705  1.00  0.00     0.085 A 
ATOM      6  C   UNL     1       7.168 -16.503 -42.684  1.00  0.00     0.156 A 
ATOM      7  F   UNL     1       7.900 -16.748 -41.585  1.00  0.00    -0.204 F 
ENDROOT
BRANCH   1   8
ATOM      8  C   UNL     1       9.093 -15.328 -43.743  1.00  0.00     0.094 A 
ATOM      9  C   UNL     1      11.216 -15.391 -44.403  1.00  0.00     0.099 A 
ATOM     10  N   UNL     1      10.044 -15.983 -44.507  1.00  0.00    -0.240 NA
ATOM     11  S   UNL     1      11.240 -14.041 -43.330  1.00  0.00    -0.116 S 
ATOM     12  C   UNL     1       9.567 -14.263 -42.991  1.00  0.00     0.081 A 
BRANCH   9  13
ATOM     13  C   UNL     1      12.475 -15.858 -45.135  1.00  0.00     0.014 C 
ATOM     14  C   UNL     1      12.153 -17.083 -46.008  1.00  0.00     0.018 C 
ATOM     15  C   UNL     1      12.990 -14.731 -46.060  1.00  0.00     0.018 C 
ATOM     16  C   UNL     1      13.605 -16.204 -44.145  1.00  0.00     0.018 C 
ENDBRANCH   9  13
BRANCH  12  17
ATOM     17  C   UNL     1       8.916 -13.394 -42.011  1.00  0.00     0.088 A 
ATOM     18  C   UNL     1       8.695 -13.799 -40.712  1.00  0.00     0.050 A 
ATOM     19  N   UNL     1       8.546 -12.183 -42.474  1.00  0.00    -0.212 NA
ATOM     20  C   UNL     1       8.052 -12.888 -39.912  1.00  0.00     0.117 A 
ATOM     21  C   UNL     1       7.943 -11.367 -41.608  1.00  0.00     0.220 A 
ATOM     22  N   UNL     1       7.658 -11.676 -40.339  1.00  0.00    -0.222 NA
BRANCH  21  23
ATOM     23  N   UNL     1       7.543 -10.131 -42.072  1.00  0.00    -0.368 N 
ATOM     24  H   UNL     1       6.796  -9.776 -41.488  1.00  0.00     0.159 HD
ATOM     25  H   UNL     1       8.350  -9.534 -42.202  1.00  0.00     0.159 HD
ENDBRANCH  21  23
ENDBRANCH  12  17
ENDBRANCH   1   8
BRANCH   5  26
ATOM     26  N   UNL     1       5.301 -17.600 -41.558  1.00  0.00    -0.276 N 
ATOM     27  H   UNL     1       4.398 -17.255 -41.225  1.00  0.00     0.180 HD
BRANCH  26  28
ATOM     28  S   UNL     1       5.320 -19.298 -41.538  1.00  0.00     0.267 S 
ATOM     29  O   UNL     1       6.085 -19.691 -40.375  1.00  0.00    -0.201 OA
ATOM     30  O   UNL     1       5.709 -19.752 -42.856  1.00  0.00    -0.201 OA
BRANCH  28  31
ATOM     31  C   UNL     1       3.649 -19.730 -41.235  1.00  0.00     0.158 A 
ATOM     32  C   UNL     1       2.984 -20.663 -42.015  1.00  0.00     0.146 A 
ATOM     33  C   UNL     1       2.985 -19.120 -40.178  1.00  0.00     0.146 A 
ATOM     34  C   UNL     1       1.651 -20.980 -41.746  1.00  0.00     0.041 A 
ATOM     35  C   UNL     1       1.653 -19.426 -39.900  1.00  0.00     0.041 A 
ATOM     36  C   UNL     1       0.982 -20.361 -40.687  1.00  0.00     0.006 A 
ATOM     37  F   UNL     1       3.576 -21.280 -43.044  1.00  0.00    -0.205 F 
ATOM     38  F   UNL     1       3.598 -18.194 -39.424  1.00  0.00    -0.205 F 
ENDBRANCH  28  31
ENDBRANCH  26  28
ENDBRANCH   5  26
TORSDOF 7
ENDMDL
MODEL 14
REMARK VINA RESULT:    -8.185      7.692     10.777
REMARK INTER + INTRA:         -12.178
REMARK INTER:                 -10.937
REMARK INTRA:                  -1.241
REMARK UNBOUND:                -0.884
REMARK SMILES CC(C)(C)c1nc(-c2cccc(NS(=O)(=O)c3c(F)cccc3F)c2F)c(-c2ccnc(N)n2)s1
REMARK SMILES IDX 8 1 9 2 10 3 11 4 12 5 25 6 26 7 7 8 5 9 6 10 35 11 27 12
REMARK SMILES IDX 2 13 1 14 3 15 4 16 28 17 29 18 34 19 30 20 32 21 31 22
REMARK SMILES IDX 33 23 13 26 14 28 15 29 16 30 17 31 18 32 23 33 20 34 22 35
REMARK SMILES IDX 21 36 19 37 24 38
REMARK H PARENT 33 24 33 25 13 27
ROOT
ATOM      1  C   UNL     1       5.485 -13.694 -44.593  1.00  0.00     0.040 A 
ATOM      2  C   UNL     1       4.925 -14.366 -45.688  1.00  0.00     0.013 A 
ATOM      3  C   UNL     1       4.307 -15.608 -45.514  1.00  0.00     0.003 A 
ATOM      4  C   UNL     1       4.227 -16.181 -44.242  1.00  0.00     0.030 A 
ATOM      5  C   UNL     1       4.749 -15.507 -43.142  1.00  0.00     0.085 A 
ATOM      6  C   UNL     1       5.382 -14.272 -43.325  1.00  0.00     0.156 A 
ATOM      7  F   UNL     1       5.863 -13.634 -42.246  1.00  0.00    -0.204 F 
ENDROOT
BRANCH   1   8
ATOM      8  C   UNL     1       6.111 -12.398 -44.797  1.00  0.00     0.094 A 
ATOM      9  C   UNL     1       6.046 -10.187 -45.037  1.00  0.00     0.099 A 
ATOM     10  N   UNL     1       5.312 -11.272 -44.898  1.00  0.00    -0.240 NA
ATOM     11  S   UNL     1       7.744 -10.481 -45.108  1.00  0.00    -0.116 S 
ATOM     12  C   UNL     1       7.473 -12.172 -44.934  1.00  0.00     0.081 A 
BRANCH   9  13
ATOM     13  C   UNL     1       5.469  -8.777 -45.160  1.00  0.00     0.014 C 
ATOM     14  C   UNL     1       3.953  -8.803 -44.895  1.00  0.00     0.018 C 
ATOM     15  C   UNL     1       6.123  -7.851 -44.109  1.00  0.00     0.018 C 
ATOM     16  C   UNL     1       5.746  -8.175 -46.551  1.00  0.00     0.018 C 
ENDBRANCH   9  13
BRANCH  12  17
ATOM     17  C   UNL     1       8.614 -13.086 -44.977  1.00  0.00     0.088 A 
ATOM     18  C   UNL     1       9.602 -13.061 -44.016  1.00  0.00     0.050 A 
ATOM     19  N   UNL     1       8.630 -13.937 -46.023  1.00  0.00    -0.212 NA
ATOM     20  C   UNL     1      10.624 -13.959 -44.199  1.00  0.00     0.117 A 
ATOM     21  C   UNL     1       9.661 -14.780 -46.096  1.00  0.00     0.220 A 
ATOM     22  N   UNL     1      10.680 -14.816 -45.233  1.00  0.00    -0.222 NA
BRANCH  21  23
ATOM     23  N   UNL     1       9.700 -15.645 -47.170  1.00  0.00    -0.368 N 
ATOM     24  H   UNL     1      10.647 -15.706 -47.523  1.00  0.00     0.159 HD
ATOM     25  H   UNL     1       9.241 -16.515 -46.927  1.00  0.00     0.159 HD
ENDBRANCH  21  23
ENDBRANCH  12  17
ENDBRANCH   1   8
BRANCH   5  26
ATOM     26  N   UNL     1       4.629 -16.036 -41.817  1.00  0.00    -0.276 N 
ATOM     27  H   UNL     1       3.684 -16.306 -41.532  1.00  0.00     0.180 HD
BRANCH  26  28
ATOM     28  S   UNL     1       5.746 -17.214 -41.318  1.00  0.00     0.267 S 
ATOM     29  O   UNL     1       5.772 -17.174 -39.871  1.00  0.00    -0.201 OA
ATOM     30  O   UNL     1       6.963 -17.019 -42.075  1.00  0.00    -0.201 OA
BRANCH  28  31
ATOM     31  C   UNL     1       4.996 -18.726 -41.784  1.00  0.00     0.158 A 
ATOM     32  C   UNL     1       5.512 -19.513 -42.802  1.00  0.00     0.146 A 
ATOM     33  C   UNL     1       3.856 -19.141 -41.106  1.00  0.00     0.146 A 
ATOM     34  C   UNL     1       4.884 -20.711 -43.150  1.00  0.00     0.041 A 
ATOM     35  C   UNL     1       3.219 -20.335 -41.445  1.00  0.00     0.041 A 
ATOM     36  C   UNL     1       3.736 -21.124 -42.472  1.00  0.00     0.006 A 
ATOM     37  F   UNL     1       6.606 -19.160 -43.488  1.00  0.00    -0.205 F 
ATOM     38  F   UNL     1       3.321 -18.385 -40.135  1.00  0.00    -0.205 F 
ENDBRANCH  28  31
ENDBRANCH  26  28
ENDBRANCH   5  26
TORSDOF 7
ENDMDL
MODEL 15
REMARK VINA RESULT:    -8.118      7.644     10.843
REMARK INTER + INTRA:         -12.087
REMARK INTER:                 -10.892
REMARK INTRA:                  -1.194
REMARK UNBOUND:                -0.884
REMARK SMILES CC(C)(C)c1nc(-c2cccc(NS(=O)(=O)c3c(F)cccc3F)c2F)c(-c2ccnc(N)n2)s1
REMARK SMILES IDX 8 1 9 2 10 3 11 4 12 5 25 6 26 7 7 8 5 9 6 10 35 11 27 12
REMARK SMILES IDX 2 13 1 14 3 15 4 16 28 17 29 18 34 19 30 20 32 21 31 22
REMARK SMILES IDX 33 23 13 26 14 28 15 29 16 30 17 31 18 32 23 33 20 34 22 35
REMARK SMILES IDX 21 36 19 37 24 38
REMARK H PARENT 33 24 33 25 13 27
ROOT
ATOM      1  C   UNL     1       5.435 -13.534 -44.593  1.00  0.00     0.040 A 
ATOM      2  C   UNL     1       4.790 -14.144 -45.678  1.00  0.00     0.013 A 
ATOM      3  C   UNL     1       4.147 -15.375 -45.516  1.00  0.00     0.003 A 
ATOM      4  C   UNL     1       4.126 -15.999 -44.267  1.00  0.00     0.030 A 
ATOM      5  C   UNL     1       4.733 -15.386 -43.174  1.00  0.00     0.085 A 
ATOM      6  C   UNL     1       5.392 -14.163 -43.345  1.00  0.00     0.156 A 
ATOM      7  F   UNL     1       5.956 -13.584 -42.273  1.00  0.00    -0.204 F 
ENDROOT
BRANCH   1   8
ATOM      8  C   UNL     1       6.087 -12.249 -44.783  1.00  0.00     0.094 A 
ATOM      9  C   UNL     1       6.064 -10.037 -45.016  1.00  0.00     0.099 A 
ATOM     10  N   UNL     1       5.309 -11.109 -44.893  1.00  0.00    -0.240 NA
ATOM     11  S   UNL     1       7.758 -10.360 -45.061  1.00  0.00    -0.116 S 
ATOM     12  C   UNL     1       7.455 -12.047 -44.897  1.00  0.00     0.081 A 
BRANCH   9  13
ATOM     13  C   UNL     1       5.514  -8.616 -45.144  1.00  0.00     0.014 C 
ATOM     14  C   UNL     1       5.750  -8.086 -46.569  1.00  0.00     0.018 C 
ATOM     15  C   UNL     1       3.991  -8.621 -44.880  1.00  0.00     0.018 C 
ATOM     16  C   UNL     1       6.164  -7.668 -44.118  1.00  0.00     0.018 C 
ENDBRANCH   9  13
BRANCH  12  17
ATOM     17  C   UNL     1       8.581 -12.980 -44.925  1.00  0.00     0.088 A 
ATOM     18  C   UNL     1       9.530 -13.004 -43.926  1.00  0.00     0.050 A 
ATOM     19  N   UNL     1       8.622 -13.798 -45.996  1.00  0.00    -0.212 NA
ATOM     20  C   UNL     1      10.542 -13.915 -44.098  1.00  0.00     0.117 A 
ATOM     21  C   UNL     1       9.640 -14.657 -46.056  1.00  0.00     0.220 A 
ATOM     22  N   UNL     1      10.624 -14.740 -45.155  1.00  0.00    -0.222 NA
BRANCH  21  23
ATOM     23  N   UNL     1       9.706 -15.489 -47.155  1.00  0.00    -0.368 N 
ATOM     24  H   UNL     1       9.357 -16.407 -46.907  1.00  0.00     0.159 HD
ATOM     25  H   UNL     1       9.284 -15.035 -47.955  1.00  0.00     0.159 HD
ENDBRANCH  21  23
ENDBRANCH  12  17
ENDBRANCH   1   8
BRANCH   5  26
ATOM     26  N   UNL     1       4.678 -15.967 -41.867  1.00  0.00    -0.276 N 
ATOM     27  H   UNL     1       3.755 -16.290 -41.565  1.00  0.00     0.180 HD
BRANCH  26  28
ATOM     28  S   UNL     1       5.861 -17.110 -41.444  1.00  0.00     0.267 S 
ATOM     29  O   UNL     1       5.969 -17.081 -40.001  1.00  0.00    -0.201 OA
ATOM     30  O   UNL     1       7.025 -16.868 -42.268  1.00  0.00    -0.201 OA
BRANCH  28  31
ATOM     31  C   UNL     1       5.136 -18.644 -41.881  1.00  0.00     0.158 A 
ATOM     32  C   UNL     1       4.038 -19.151 -41.205  1.00  0.00     0.146 A 
ATOM     33  C   UNL     1       5.682 -19.360 -42.940  1.00  0.00     0.146 A 
ATOM     34  C   UNL     1       3.489 -20.380 -41.579  1.00  0.00     0.041 A 
ATOM     35  C   UNL     1       5.144 -20.588 -43.322  1.00  0.00     0.041 A 
ATOM     36  C   UNL     1       4.042 -21.101 -42.639  1.00  0.00     0.006 A 
ATOM     37  F   UNL     1       3.475 -18.504 -40.178  1.00  0.00    -0.205 F 
ATOM     38  F   UNL     1       6.761 -18.903 -43.594  1.00  0.00    -0.205 F 
ENDBRANCH  28  31
ENDBRANCH  26  28
ENDBRANCH   5  26
TORSDOF 7
ENDMDL
MODEL 16
REMARK VINA RESULT:    -8.095     10.138     12.229
REMARK INTER + INTRA:         -12.055
REMARK INTER:                 -11.038
REMARK INTRA:                  -1.016
REMARK UNBOUND:                -0.884
REMARK SMILES CC(C)(C)c1nc(-c2cccc(NS(=O)(=O)c3c(F)cccc3F)c2F)c(-c2ccnc(N)n2)s1
REMARK SMILES IDX 8 1 9 2 10 3 11 4 12 5 25 6 26 7 7 8 5 9 6 10 35 11 27 12
REMARK SMILES IDX 2 13 1 14 3 15 4 16 28 17 29 18 34 19 30 20 32 21 31 22
REMARK SMILES IDX 33 23 13 26 14 28 15 29 16 30 17 31 18 32 23 33 20 34 22 35
REMARK SMILES IDX 21 36 19 37 24 38
REMARK H PARENT 33 24 33 25 13 27
ROOT
ATOM      1  C   UNL     1       8.240 -16.301 -44.308  1.00  0.00     0.040 A 
ATOM      2  C   UNL     1       7.768 -16.383 -45.625  1.00  0.00     0.013 A 
ATOM      3  C   UNL     1       6.525 -16.963 -45.895  1.00  0.00     0.003 A 
ATOM      4  C   UNL     1       5.735 -17.450 -44.851  1.00  0.00     0.030 A 
ATOM      5  C   UNL     1       6.178 -17.343 -43.536  1.00  0.00     0.085 A 
ATOM      6  C   UNL     1       7.432 -16.778 -43.273  1.00  0.00     0.156 A 
ATOM      7  F   UNL     1       7.829 -16.671 -41.995  1.00  0.00    -0.204 F 
ENDROOT
BRANCH   1   8
ATOM      8  C   UNL     1       9.531 -15.683 -44.051  1.00  0.00     0.094 A 
ATOM      9  C   UNL     1      11.755 -15.680 -44.047  1.00  0.00     0.099 A 
ATOM     10  N   UNL     1      10.685 -16.408 -44.293  1.00  0.00    -0.240 NA
ATOM     11  S   UNL     1      11.418 -14.096 -43.456  1.00  0.00    -0.116 S 
ATOM     12  C   UNL     1       9.728 -14.407 -43.544  1.00  0.00     0.081 A 
BRANCH   9  13
ATOM     13  C   UNL     1      13.188 -16.182 -44.230  1.00  0.00     0.014 C 
ATOM     14  C   UNL     1      13.198 -17.427 -45.135  1.00  0.00     0.018 C 
ATOM     15  C   UNL     1      14.042 -15.088 -44.910  1.00  0.00     0.018 C 
ATOM     16  C   UNL     1      13.844 -16.515 -42.876  1.00  0.00     0.018 C 
ENDBRANCH   9  13
BRANCH  12  17
ATOM     17  C   UNL     1       8.789 -13.384 -43.084  1.00  0.00     0.088 A 
ATOM     18  C   UNL     1       8.327 -12.392 -43.923  1.00  0.00     0.050 A 
ATOM     19  N   UNL     1       8.423 -13.480 -41.790  1.00  0.00    -0.212 NA
ATOM     20  C   UNL     1       7.471 -11.486 -43.347  1.00  0.00     0.117 A 
ATOM     21  C   UNL     1       7.572 -12.558 -41.338  1.00  0.00     0.220 A 
ATOM     22  N   UNL     1       7.090 -11.542 -42.060  1.00  0.00    -0.222 NA
BRANCH  21  23
ATOM     23  N   UNL     1       7.201 -12.632 -40.011  1.00  0.00    -0.368 N 
ATOM     24  H   UNL     1       6.489 -13.342 -39.897  1.00  0.00     0.159 HD
ATOM     25  H   UNL     1       8.026 -12.707 -39.427  1.00  0.00     0.159 HD
ENDBRANCH  21  23
ENDBRANCH  12  17
ENDBRANCH   1   8
BRANCH   5  26
ATOM     26  N   UNL     1       5.367 -17.775 -42.438  1.00  0.00    -0.276 N 
ATOM     27  H   UNL     1       4.389 -17.476 -42.465  1.00  0.00     0.180 HD
BRANCH  26  28
ATOM     28  S   UNL     1       5.465 -19.401 -41.957  1.00  0.00     0.267 S 
ATOM     29  O   UNL     1       6.353 -19.443 -40.815  1.00  0.00    -0.201 OA
ATOM     30  O   UNL     1       5.750 -20.195 -43.133  1.00  0.00    -0.201 OA
BRANCH  28  31
ATOM     31  C   UNL     1       3.852 -19.763 -41.377  1.00  0.00     0.158 A 
ATOM     32  C   UNL     1       3.040 -20.691 -42.011  1.00  0.00     0.146 A 
ATOM     33  C   UNL     1       3.386 -19.100 -40.248  1.00  0.00     0.146 A 
ATOM     34  C   UNL     1       1.758 -20.951 -41.523  1.00  0.00     0.041 A 
ATOM     35  C   UNL     1       2.107 -19.350 -39.752  1.00  0.00     0.041 A 
ATOM     36  C   UNL     1       1.288 -20.280 -40.392  1.00  0.00     0.006 A 
ATOM     37  F   UNL     1       3.439 -21.356 -43.101  1.00  0.00    -0.205 F 
ATOM     38  F   UNL     1       4.142 -18.179 -39.632  1.00  0.00    -0.205 F 
ENDBRANCH  28  31
ENDBRANCH  26  28
ENDBRANCH   5  26
TORSDOF 7
ENDMDL
MODEL 17
REMARK VINA RESULT:    -8.083      5.781      8.600
REMARK INTER + INTRA:         -12.039
REMARK INTER:                 -10.977
REMARK INTRA:                  -1.062
REMARK UNBOUND:                -0.884
REMARK SMILES CC(C)(C)c1nc(-c2cccc(NS(=O)(=O)c3c(F)cccc3F)c2F)c(-c2ccnc(N)n2)s1
REMARK SMILES IDX 8 1 9 2 10 3 11 4 12 5 25 6 26 7 7 8 5 9 6 10 35 11 27 12
REMARK SMILES IDX 2 13 1 14 3 15 4 16 28 17 29 18 34 19 30 20 32 21 31 22
REMARK SMILES IDX 33 23 13 26 14 28 15 29 16 30 17 31 18 32 23 33 20 34 22 35
REMARK SMILES IDX 21 36 19 37 24 38
REMARK H PARENT 33 24 33 25 13 27
ROOT
ATOM      1  C   UNL     1       4.421 -15.146 -44.246  1.00  0.00     0.040 A 
ATOM      2  C   UNL     1       4.722 -16.018 -45.301  1.00  0.00     0.013 A 
ATOM      3  C   UNL     1       3.810 -16.203 -46.346  1.00  0.00     0.003 A 
ATOM      4  C   UNL     1       2.600 -15.505 -46.354  1.00  0.00     0.030 A 
ATOM      5  C   UNL     1       2.307 -14.611 -45.329  1.00  0.00     0.085 A 
ATOM      6  C   UNL     1       3.214 -14.443 -44.276  1.00  0.00     0.156 A 
ATOM      7  F   UNL     1       2.915 -13.563 -43.308  1.00  0.00    -0.204 F 
ENDROOT
BRANCH   1   8
ATOM      8  C   UNL     1       5.390 -14.962 -43.177  1.00  0.00     0.094 A 
ATOM      9  C   UNL     1       6.867 -13.751 -42.036  1.00  0.00     0.099 A 
ATOM     10  N   UNL     1       6.066 -13.757 -43.082  1.00  0.00    -0.240 NA
ATOM     11  S   UNL     1       6.884 -15.227 -41.144  1.00  0.00    -0.116 S 
ATOM     12  C   UNL     1       5.737 -15.913 -42.229  1.00  0.00     0.081 A 
BRANCH   9  13
ATOM     13  C   UNL     1       7.743 -12.563 -41.640  1.00  0.00     0.014 C 
ATOM     14  C   UNL     1       9.225 -12.980 -41.631  1.00  0.00     0.018 C 
ATOM     15  C   UNL     1       7.573 -11.422 -42.670  1.00  0.00     0.018 C 
ATOM     16  C   UNL     1       7.348 -12.009 -40.257  1.00  0.00     0.018 C 
ENDBRANCH   9  13
BRANCH  12  17
ATOM     17  C   UNL     1       5.328 -17.306 -42.049  1.00  0.00     0.088 A 
ATOM     18  C   UNL     1       6.143 -18.356 -42.413  1.00  0.00     0.050 A 
ATOM     19  N   UNL     1       4.103 -17.480 -41.512  1.00  0.00    -0.212 NA
ATOM     20  C   UNL     1       5.618 -19.607 -42.208  1.00  0.00     0.117 A 
ATOM     21  C   UNL     1       3.697 -18.738 -41.340  1.00  0.00     0.220 A 
ATOM     22  N   UNL     1       4.398 -19.822 -41.686  1.00  0.00    -0.222 NA
BRANCH  21  23
ATOM     23  N   UNL     1       2.439 -18.933 -40.808  1.00  0.00    -0.368 N 
ATOM     24  H   UNL     1       2.495 -19.577 -40.029  1.00  0.00     0.159 HD
ATOM     25  H   UNL     1       1.996 -18.038 -40.637  1.00  0.00     0.159 HD
ENDBRANCH  21  23
ENDBRANCH  12  17
ENDBRANCH   1   8
BRANCH   5  26
ATOM     26  N   UNL     1       1.104 -13.834 -45.339  1.00  0.00    -0.276 N 
ATOM     27  H   UNL     1       0.710 -13.617 -44.420  1.00  0.00     0.180 HD
BRANCH  26  28
ATOM     28  S   UNL     1       1.039 -12.462 -46.338  1.00  0.00     0.267 S 
ATOM     29  O   UNL     1       0.548 -12.908 -47.624  1.00  0.00    -0.201 OA
ATOM     30  O   UNL     1       2.312 -11.782 -46.238  1.00  0.00    -0.201 OA
BRANCH  28  31
ATOM     31  C   UNL     1      -0.215 -11.477 -45.614  1.00  0.00     0.158 A 
ATOM     32  C   UNL     1      -1.387 -11.176 -46.289  1.00  0.00     0.146 A 
ATOM     33  C   UNL     1      -0.021 -10.993 -44.325  1.00  0.00     0.146 A 
ATOM     34  C   UNL     1      -2.363 -10.383 -45.682  1.00  0.00     0.041 A 
ATOM     35  C   UNL     1      -0.987 -10.199 -43.709  1.00  0.00     0.041 A 
ATOM     36  C   UNL     1      -2.165  -9.892 -44.390  1.00  0.00     0.006 A 
ATOM     37  F   UNL     1      -1.625 -11.614 -47.531  1.00  0.00    -0.205 F 
ATOM     38  F   UNL     1       1.116 -11.247 -43.660  1.00  0.00    -0.205 F 
ENDBRANCH  28  31
ENDBRANCH  26  28
ENDBRANCH   5  26
TORSDOF 7
ENDMDL
MODEL 18
REMARK VINA RESULT:    -8.070      7.914     11.010
REMARK INTER + INTRA:         -12.021
REMARK INTER:                 -10.907
REMARK INTRA:                  -1.113
REMARK UNBOUND:                -0.884
REMARK SMILES CC(C)(C)c1nc(-c2cccc(NS(=O)(=O)c3c(F)cccc3F)c2F)c(-c2ccnc(N)n2)s1
REMARK SMILES IDX 8 1 9 2 10 3 11 4 12 5 25 6 26 7 7 8 5 9 6 10 35 11 27 12
REMARK SMILES IDX 2 13 1 14 3 15 4 16 28 17 29 18 34 19 30 20 32 21 31 22
REMARK SMILES IDX 33 23 13 26 14 28 15 29 16 30 17 31 18 32 23 33 20 34 22 35
REMARK SMILES IDX 21 36 19 37 24 38
REMARK H PARENT 33 24 33 25 13 27
ROOT
ATOM      1  C   UNL     1       5.161 -16.390 -44.524  1.00  0.00     0.040 A 
ATOM      2  C   UNL     1       5.334 -17.315 -45.563  1.00  0.00     0.013 A 
ATOM      3  C   UNL     1       6.125 -18.452 -45.371  1.00  0.00     0.003 A 
ATOM      4  C   UNL     1       6.735 -18.684 -44.136  1.00  0.00     0.030 A 
ATOM      5  C   UNL     1       6.541 -17.790 -43.087  1.00  0.00     0.085 A 
ATOM      6  C   UNL     1       5.764 -16.644 -43.290  1.00  0.00     0.156 A 
ATOM      7  F   UNL     1       5.579 -15.805 -42.257  1.00  0.00    -0.204 F 
ENDROOT
BRANCH   1   8
ATOM      8  C   UNL     1       4.324 -15.221 -44.744  1.00  0.00     0.094 A 
ATOM      9  C   UNL     1       2.363 -14.235 -45.104  1.00  0.00     0.099 A 
ATOM     10  N   UNL     1       2.969 -15.397 -44.969  1.00  0.00    -0.240 NA
ATOM     11  S   UNL     1       3.413 -12.870 -45.019  1.00  0.00    -0.116 S 
ATOM     12  C   UNL     1       4.766 -13.907 -44.780  1.00  0.00     0.081 A 
BRANCH   9  13
ATOM     13  C   UNL     1       0.862 -14.079 -45.348  1.00  0.00     0.014 C 
ATOM     14  C   UNL     1       0.382 -12.714 -44.825  1.00  0.00     0.018 C 
ATOM     15  C   UNL     1       0.569 -14.142 -46.864  1.00  0.00     0.018 C 
ATOM     16  C   UNL     1       0.063 -15.209 -44.669  1.00  0.00     0.018 C 
ENDBRANCH   9  13
BRANCH  12  17
ATOM     17  C   UNL     1       6.104 -13.324 -44.681  1.00  0.00     0.088 A 
ATOM     18  C   UNL     1       7.192 -13.892 -45.309  1.00  0.00     0.050 A 
ATOM     19  N   UNL     1       6.190 -12.208 -43.930  1.00  0.00    -0.212 NA
ATOM     20  C   UNL     1       8.389 -13.250 -45.107  1.00  0.00     0.117 A 
ATOM     21  C   UNL     1       7.398 -11.654 -43.815  1.00  0.00     0.220 A 
ATOM     22  N   UNL     1       8.517 -12.141 -44.358  1.00  0.00    -0.222 NA
BRANCH  21  23
ATOM     23  N   UNL     1       7.506 -10.521 -43.035  1.00  0.00    -0.368 N 
ATOM     24  H   UNL     1       8.003  -9.803 -43.547  1.00  0.00     0.159 HD
ATOM     25  H   UNL     1       6.598 -10.274 -42.659  1.00  0.00     0.159 HD
ENDBRANCH  21  23
ENDBRANCH  12  17
ENDBRANCH   1   8
BRANCH   5  26
ATOM     26  N   UNL     1       7.101 -18.029 -41.791  1.00  0.00    -0.276 N 
ATOM     27  H   UNL     1       7.032 -17.252 -41.129  1.00  0.00     0.180 HD
BRANCH  26  28
ATOM     28  S   UNL     1       6.729 -19.491 -41.011  1.00  0.00     0.267 S 
ATOM     29  O   UNL     1       7.079 -19.319 -39.618  1.00  0.00    -0.201 OA
ATOM     30  O   UNL     1       7.314 -20.566 -41.784  1.00  0.00    -0.201 OA
BRANCH  28  31
ATOM     31  C   UNL     1       4.982 -19.582 -41.103  1.00  0.00     0.158 A 
ATOM     32  C   UNL     1       4.341 -20.533 -41.882  1.00  0.00     0.146 A 
ATOM     33  C   UNL     1       4.229 -18.675 -40.368  1.00  0.00     0.146 A 
ATOM     34  C   UNL     1       2.946 -20.572 -41.935  1.00  0.00     0.041 A 
ATOM     35  C   UNL     1       2.835 -18.703 -40.413  1.00  0.00     0.041 A 
ATOM     36  C   UNL     1       2.190 -19.656 -41.200  1.00  0.00     0.006 A 
ATOM     37  F   UNL     1       5.018 -21.429 -42.610  1.00  0.00    -0.205 F 
ATOM     38  F   UNL     1       4.825 -17.728 -39.627  1.00  0.00    -0.205 F 
ENDBRANCH  28  31
ENDBRANCH  26  28
ENDBRANCH   5  26
TORSDOF 7
ENDMDL
MODEL 19
REMARK VINA RESULT:    -7.919      9.157     11.410
REMARK INTER + INTRA:         -11.812
REMARK INTER:                 -11.302
REMARK INTRA:                  -0.510
REMARK UNBOUND:                -0.884
REMARK SMILES CC(C)(C)c1nc(-c2cccc(NS(=O)(=O)c3c(F)cccc3F)c2F)c(-c2ccnc(N)n2)s1
REMARK SMILES IDX 8 1 9 2 10 3 11 4 12 5 25 6 26 7 7 8 5 9 6 10 35 11 27 12
REMARK SMILES IDX 2 13 1 14 3 15 4 16 28 17 29 18 34 19 30 20 32 21 31 22
REMARK SMILES IDX 33 23 13 26 14 28 15 29 16 30 17 31 18 32 23 33 20 34 22 35
REMARK SMILES IDX 21 36 19 37 24 38
REMARK H PARENT 33 24 33 25 13 27
ROOT
ATOM      1  C   UNL     1       5.892 -17.229 -42.184  1.00  0.00     0.040 A 
ATOM      2  C   UNL     1       6.741 -18.321 -41.958  1.00  0.00     0.013 A 
ATOM      3  C   UNL     1       6.236 -19.509 -41.420  1.00  0.00     0.003 A 
ATOM      4  C   UNL     1       4.877 -19.623 -41.121  1.00  0.00     0.030 A 
ATOM      5  C   UNL     1       4.018 -18.558 -41.374  1.00  0.00     0.085 A 
ATOM      6  C   UNL     1       4.531 -17.364 -41.895  1.00  0.00     0.156 A 
ATOM      7  F   UNL     1       3.680 -16.356 -42.145  1.00  0.00    -0.204 F 
ENDROOT
BRANCH   1   8
ATOM      8  C   UNL     1       6.438 -16.009 -42.755  1.00  0.00     0.094 A 
ATOM      9  C   UNL     1       7.664 -14.155 -42.653  1.00  0.00     0.099 A 
ATOM     10  N   UNL     1       7.223 -15.187 -41.963  1.00  0.00    -0.240 NA
ATOM     11  S   UNL     1       7.106 -14.097 -44.283  1.00  0.00    -0.116 S 
ATOM     12  C   UNL     1       6.221 -15.555 -44.048  1.00  0.00     0.081 A 
BRANCH   9  13
ATOM     13  C   UNL     1       8.570 -13.068 -42.075  1.00  0.00     0.014 C 
ATOM     14  C   UNL     1       8.991 -13.441 -40.642  1.00  0.00     0.018 C 
ATOM     15  C   UNL     1       9.849 -12.943 -42.933  1.00  0.00     0.018 C 
ATOM     16  C   UNL     1       7.871 -11.695 -42.073  1.00  0.00     0.018 C 
ENDBRANCH   9  13
BRANCH  12  17
ATOM     17  C   UNL     1       5.397 -16.074 -45.139  1.00  0.00     0.088 A 
ATOM     18  C   UNL     1       5.827 -17.104 -45.948  1.00  0.00     0.050 A 
ATOM     19  N   UNL     1       4.203 -15.468 -45.296  1.00  0.00    -0.212 NA
ATOM     20  C   UNL     1       4.959 -17.469 -46.947  1.00  0.00     0.117 A 
ATOM     21  C   UNL     1       3.429 -15.914 -46.286  1.00  0.00     0.220 A 
ATOM     22  N   UNL     1       3.766 -16.884 -47.142  1.00  0.00    -0.222 NA
BRANCH  21  23
ATOM     23  N   UNL     1       2.211 -15.292 -46.470  1.00  0.00    -0.368 N 
ATOM     24  H   UNL     1       1.687 -15.309 -45.604  1.00  0.00     0.159 HD
ATOM     25  H   UNL     1       2.348 -14.390 -46.909  1.00  0.00     0.159 HD
ENDBRANCH  21  23
ENDBRANCH  12  17
ENDBRANCH   1   8
BRANCH   5  26
ATOM     26  N   UNL     1       2.610 -18.662 -41.137  1.00  0.00    -0.276 N 
ATOM     27  H   UNL     1       2.026 -17.986 -41.635  1.00  0.00     0.180 HD
BRANCH  26  28
ATOM     28  S   UNL     1       1.896 -20.202 -41.195  1.00  0.00     0.267 S 
ATOM     29  O   UNL     1       1.919 -20.721 -39.844  1.00  0.00    -0.201 OA
ATOM     30  O   UNL     1       2.521 -20.940 -42.271  1.00  0.00    -0.201 OA
BRANCH  28  31
ATOM     31  C   UNL     1       0.224 -19.873 -41.599  1.00  0.00     0.158 A 
ATOM     32  C   UNL     1      -0.743 -20.867 -41.573  1.00  0.00     0.146 A 
ATOM     33  C   UNL     1      -0.134 -18.576 -41.949  1.00  0.00     0.146 A 
ATOM     34  C   UNL     1      -2.066 -20.568 -41.906  1.00  0.00     0.041 A 
ATOM     35  C   UNL     1      -1.451 -18.266 -42.285  1.00  0.00     0.041 A 
ATOM     36  C   UNL     1      -2.422 -19.266 -42.263  1.00  0.00     0.006 A 
ATOM     37  F   UNL     1      -0.453 -22.131 -41.245  1.00  0.00    -0.205 F 
ATOM     38  F   UNL     1       0.787 -17.602 -42.007  1.00  0.00    -0.205 F 
ENDBRANCH  28  31
ENDBRANCH  26  28
ENDBRANCH   5  26
TORSDOF 7
ENDMDL
MODEL 20
REMARK VINA RESULT:    -7.912      3.080      5.622
REMARK INTER + INTRA:         -11.802
REMARK INTER:                 -11.014
REMARK INTRA:                  -0.788
REMARK UNBOUND:                -0.884
REMARK SMILES CC(C)(C)c1nc(-c2cccc(NS(=O)(=O)c3c(F)cccc3F)c2F)c(-c2ccnc(N)n2)s1
REMARK SMILES IDX 8 1 9 2 10 3 11 4 12 5 25 6 26 7 7 8 5 9 6 10 35 11 27 12
REMARK SMILES IDX 2 13 1 14 3 15 4 16 28 17 29 18 34 19 30 20 32 21 31 22
REMARK SMILES IDX 33 23 13 26 14 28 15 29 16 30 17 31 18 32 23 33 20 34 22 35
REMARK SMILES IDX 21 36 19 37 24 38
REMARK H PARENT 33 24 33 25 13 27
ROOT
ATOM      1  C   UNL     1       2.080 -11.459 -45.523  1.00  0.00     0.040 A 
ATOM      2  C   UNL     1       1.570 -12.432 -46.393  1.00  0.00     0.013 A 
ATOM      3  C   UNL     1       0.194 -12.675 -46.453  1.00  0.00     0.003 A 
ATOM      4  C   UNL     1      -0.686 -11.935 -45.660  1.00  0.00     0.030 A 
ATOM      5  C   UNL     1      -0.194 -10.942 -44.818  1.00  0.00     0.085 A 
ATOM      6  C   UNL     1       1.186 -10.716 -44.748  1.00  0.00     0.156 A 
ATOM      7  F   UNL     1       1.634  -9.741 -43.940  1.00  0.00    -0.204 F 
ENDROOT
BRANCH   1   8
ATOM      8  C   UNL     1       3.513 -11.217 -45.487  1.00  0.00     0.094 A 
ATOM      9  C   UNL     1       5.299  -9.902 -45.653  1.00  0.00     0.099 A 
ATOM     10  N   UNL     1       3.989  -9.949 -45.776  1.00  0.00    -0.240 NA
ATOM     11  S   UNL     1       6.030 -11.408 -45.235  1.00  0.00    -0.116 S 
ATOM     12  C   UNL     1       4.485 -12.167 -45.211  1.00  0.00     0.081 A 
BRANCH   9  13
ATOM     13  C   UNL     1       6.133  -8.642 -45.887  1.00  0.00     0.014 C 
ATOM     14  C   UNL     1       5.252  -7.391 -45.725  1.00  0.00     0.018 C 
ATOM     15  C   UNL     1       7.270  -8.567 -44.843  1.00  0.00     0.018 C 
ATOM     16  C   UNL     1       6.781  -8.648 -47.285  1.00  0.00     0.018 C 
ENDBRANCH   9  13
BRANCH  12  17
ATOM     17  C   UNL     1       4.400 -13.604 -44.952  1.00  0.00     0.088 A 
ATOM     18  C   UNL     1       4.022 -14.100 -43.723  1.00  0.00     0.050 A 
ATOM     19  N   UNL     1       4.724 -14.395 -45.994  1.00  0.00    -0.212 NA
ATOM     20  C   UNL     1       4.012 -15.469 -43.618  1.00  0.00     0.117 A 
ATOM     21  C   UNL     1       4.663 -15.712 -45.790  1.00  0.00     0.220 A 
ATOM     22  N   UNL     1       4.338 -16.291 -44.630  1.00  0.00    -0.222 NA
BRANCH  21  23
ATOM     23  N   UNL     1       5.009 -16.535 -46.842  1.00  0.00    -0.368 N 
ATOM     24  H   UNL     1       4.201 -16.690 -47.431  1.00  0.00     0.159 HD
ATOM     25  H   UNL     1       5.848 -16.186 -47.290  1.00  0.00     0.159 HD
ENDBRANCH  21  23
ENDBRANCH  12  17
ENDBRANCH   1   8
BRANCH   5  26
ATOM     26  N   UNL     1      -1.072 -10.123 -44.037  1.00  0.00    -0.276 N 
ATOM     27  H   UNL     1      -0.775  -9.950 -43.074  1.00  0.00     0.180 HD
BRANCH  26  28
ATOM     28  S   UNL     1      -1.664  -8.690 -44.730  1.00  0.00     0.267 S 
ATOM     29  O   UNL     1      -1.843  -8.954 -46.141  1.00  0.00    -0.201 OA
ATOM     30  O   UNL     1      -0.815  -7.603 -44.292  1.00  0.00    -0.201 OA
BRANCH  28  31
ATOM     31  C   UNL     1      -3.258  -8.513 -44.025  1.00  0.00     0.158 A 
ATOM     32  C   UNL     1      -3.666  -7.329 -43.431  1.00  0.00     0.146 A 
ATOM     33  C   UNL     1      -4.131  -9.593 -44.074  1.00  0.00     0.146 A 
ATOM     34  C   UNL     1      -4.943  -7.226 -42.875  1.00  0.00     0.041 A 
ATOM     35  C   UNL     1      -5.409  -9.503 -43.521  1.00  0.00     0.041 A 
ATOM     36  C   UNL     1      -5.817  -8.314 -42.920  1.00  0.00     0.006 A 
ATOM     37  F   UNL     1      -2.865  -6.259 -43.356  1.00  0.00    -0.205 F 
ATOM     38  F   UNL     1      -3.752 -10.758 -44.620  1.00  0.00    -0.205 F 
ENDBRANCH  28  31
ENDBRANCH  26  28
ENDBRANCH   5  26
TORSDOF 7
ENDMDL
