MODEL 1
REMARK VINA RESULT:    -7.167      0.000      0.000
REMARK INTER + INTRA:         -12.478
REMARK INTER:                 -11.357
REMARK INTRA:                  -1.120
REMARK UNBOUND:                -1.120
REMARK SMILES C#Cc1cccc(Nc2ncnc3cc(OCCOC)c(OCCOC)cc23)c1
REMARK SMILES IDX 9 1 10 2 11 3 12 4 13 5 14 6 15 7 21 8 27 9 28 10 8 11 7 13
REMARK SMILES IDX 2 14 3 15 4 16 29 17 5 18 6 19 1 20 22 21 23 22 24 23 25 24
REMARK SMILES IDX 26 25 16 26 17 27 18 28 19 29 20 30
REMARK H PARENT 8 12
ROOT
ATOM      1  C   UNL     1      -0.616 -18.993 -41.465  1.00  0.00     0.141 A 
ATOM      2  N   UNL     1      -1.680 -19.798 -41.591  1.00  0.00    -0.219 NA
ATOM      3  C   UNL     1      -2.645 -19.685 -42.515  1.00  0.00     0.224 A 
ATOM      4  N   UNL     1      -2.564 -18.683 -43.406  1.00  0.00    -0.236 NA
ATOM      5  C   UNL     1      -1.529 -17.832 -43.349  1.00  0.00     0.080 A 
ATOM      6  C   UNL     1      -1.481 -16.807 -44.288  1.00  0.00     0.079 A 
ATOM      7  C   UNL     1      -0.476 -15.875 -44.331  1.00  0.00     0.163 A 
ATOM      8  C   UNL     1       0.519 -16.027 -43.346  1.00  0.00     0.162 A 
ATOM      9  C   UNL     1       0.475 -17.040 -42.415  1.00  0.00     0.064 A 
ATOM     10  C   UNL     1      -0.524 -17.955 -42.381  1.00  0.00     0.047 A 
ENDROOT
BRANCH   1  11
ATOM     11  N   UNL     1       0.385 -19.145 -40.473  1.00  0.00    -0.340 N 
ATOM     12  H   UNL     1       0.148 -19.068 -39.454  1.00  0.00     0.168 HD
BRANCH  11  13
ATOM     13  C   UNL     1       1.760 -19.404 -40.749  1.00  0.00     0.041 A 
ATOM     14  C   UNL     1       5.192 -18.132 -40.046  1.00  0.00    -0.070 C 
ATOM     15  C   UNL     1       4.112 -18.954 -40.565  1.00  0.00     0.026 A 
ATOM     16  C   UNL     1       4.432 -20.031 -41.340  1.00  0.00     0.017 A 
ATOM     17  C   UNL     1       2.789 -18.630 -40.262  1.00  0.00     0.043 A 
ATOM     18  C   UNL     1       3.410 -20.826 -41.840  1.00  0.00     0.003 A 
ATOM     19  C   UNL     1       2.114 -20.485 -41.528  1.00  0.00     0.026 A 
ATOM     20  C   UNL     1       6.085 -17.446 -39.611  1.00  0.00     0.010 C 
ENDBRANCH  11  13
ENDBRANCH   1  11
BRANCH   8  21
ATOM     21  O   UNL     1       1.571 -15.123 -43.326  1.00  0.00    -0.487 OA
BRANCH  21  22
ATOM     22  C   UNL     1       2.770 -15.442 -43.994  1.00  0.00     0.258 C 
BRANCH  22  23
ATOM     23  C   UNL     1       3.464 -14.147 -44.445  1.00  0.00     0.201 C 
BRANCH  23  24
ATOM     24  O   UNL     1       4.207 -13.679 -43.361  1.00  0.00    -0.381 OA
ATOM     25  C   UNL     1       5.086 -14.659 -42.953  1.00  0.00     0.195 C 
ENDBRANCH  23  24
ENDBRANCH  22  23
ENDBRANCH  21  22
ENDBRANCH   8  21
BRANCH   7  26
ATOM     26  O   UNL     1      -0.332 -14.846 -45.186  1.00  0.00    -0.487 OA
BRANCH  26  27
ATOM     27  C   UNL     1      -0.467 -14.899 -46.570  1.00  0.00     0.258 C 
BRANCH  27  28
ATOM     28  C   UNL     1       0.719 -15.427 -47.323  1.00  0.00     0.201 C 
BRANCH  28  29
ATOM     29  O   UNL     1       0.458 -16.653 -47.913  1.00  0.00    -0.381 OA
ATOM     30  C   UNL     1       1.627 -17.297 -48.254  1.00  0.00     0.195 C 
ENDBRANCH  28  29
ENDBRANCH  27  28
ENDBRANCH  26  27
ENDBRANCH   7  26
TORSDOF 10
ENDMDL
MODEL 2
REMARK VINA RESULT:    -7.007      7.726     11.606
REMARK INTER + INTRA:         -12.224
REMARK INTER:                 -11.173
REMARK INTRA:                  -1.050
REMARK UNBOUND:                -1.120
REMARK SMILES C#Cc1cccc(Nc2ncnc3cc(OCCOC)c(OCCOC)cc23)c1
REMARK SMILES IDX 9 1 10 2 11 3 12 4 13 5 14 6 15 7 21 8 27 9 28 10 8 11 7 13
REMARK SMILES IDX 2 14 3 15 4 16 29 17 5 18 6 19 1 20 22 21 23 22 24 23 25 24
REMARK SMILES IDX 26 25 16 26 17 27 18 28 19 29 20 30
REMARK H PARENT 8 12
ROOT
ATOM      1  C   UNL     1      -1.045  -7.072 -45.600  1.00  0.00     0.141 A 
ATOM      2  N   UNL     1      -1.218  -5.745 -45.523  1.00  0.00    -0.219 NA
ATOM      3  C   UNL     1      -0.290  -4.853 -45.148  1.00  0.00     0.224 A 
ATOM      4  N   UNL     1       0.930  -5.302 -44.813  1.00  0.00    -0.236 NA
ATOM      5  C   UNL     1       1.186  -6.617 -44.863  1.00  0.00     0.080 A 
ATOM      6  C   UNL     1       2.461  -7.043 -44.507  1.00  0.00     0.079 A 
ATOM      7  C   UNL     1       2.844  -8.360 -44.517  1.00  0.00     0.163 A 
ATOM      8  C   UNL     1       1.842  -9.267 -44.917  1.00  0.00     0.162 A 
ATOM      9  C   UNL     1       0.579  -8.849 -45.270  1.00  0.00     0.064 A 
ATOM     10  C   UNL     1       0.213  -7.544 -45.256  1.00  0.00     0.047 A 
ENDROOT
BRANCH   1  11
ATOM     11  N   UNL     1      -2.053  -7.985 -46.002  1.00  0.00    -0.340 N 
ATOM     12  H   UNL     1      -1.871  -8.687 -46.758  1.00  0.00     0.168 HD
BRANCH  11  13
ATOM     13  C   UNL     1      -3.363  -8.035 -45.441  1.00  0.00     0.041 A 
ATOM     14  C   UNL     1      -5.578 -10.161 -43.327  1.00  0.00    -0.070 C 
ATOM     15  C   UNL     1      -5.108  -9.054 -44.143  1.00  0.00     0.026 A 
ATOM     16  C   UNL     1      -5.958  -8.009 -44.369  1.00  0.00     0.017 A 
ATOM     17  C   UNL     1      -3.817  -9.081 -44.668  1.00  0.00     0.043 A 
ATOM     18  C   UNL     1      -5.521  -6.943 -45.145  1.00  0.00     0.003 A 
ATOM     19  C   UNL     1      -4.243  -6.995 -45.652  1.00  0.00     0.026 A 
ATOM     20  C   UNL     1      -5.962 -11.083 -42.650  1.00  0.00     0.010 C 
ENDBRANCH  11  13
ENDBRANCH   1  11
BRANCH   8  21
ATOM     21  O   UNL     1       2.153 -10.619 -44.954  1.00  0.00    -0.487 OA
BRANCH  21  22
ATOM     22  C   UNL     1       1.194 -11.536 -45.429  1.00  0.00     0.258 C 
BRANCH  22  23
ATOM     23  C   UNL     1       1.908 -12.718 -46.103  1.00  0.00     0.201 C 
BRANCH  23  24
ATOM     24  O   UNL     1       1.112 -13.124 -47.174  1.00  0.00    -0.381 OA
ATOM     25  C   UNL     1      -0.157 -12.608 -47.021  1.00  0.00     0.195 C 
ENDBRANCH  23  24
ENDBRANCH  22  23
ENDBRANCH  21  22
ENDBRANCH   8  21
BRANCH   7  26
ATOM     26  O   UNL     1       4.039  -8.883 -44.190  1.00  0.00    -0.487 OA
BRANCH  26  27
ATOM     27  C   UNL     1       5.207  -8.171 -43.931  1.00  0.00     0.258 C 
BRANCH  27  28
ATOM     28  C   UNL     1       5.490  -7.883 -42.486  1.00  0.00     0.201 C 
BRANCH  28  29
ATOM     29  O   UNL     1       5.129  -6.594 -42.130  1.00  0.00    -0.381 OA
ATOM     30  C   UNL     1       4.161  -6.603 -41.150  1.00  0.00     0.195 C 
ENDBRANCH  28  29
ENDBRANCH  27  28
ENDBRANCH  26  27
ENDBRANCH   7  26
TORSDOF 10
ENDMDL
MODEL 3
REMARK VINA RESULT:    -7.002      3.833      6.341
REMARK INTER + INTRA:         -12.216
REMARK INTER:                 -11.424
REMARK INTRA:                  -0.792
REMARK UNBOUND:                -1.120
REMARK SMILES C#Cc1cccc(Nc2ncnc3cc(OCCOC)c(OCCOC)cc23)c1
REMARK SMILES IDX 9 1 10 2 11 3 12 4 13 5 14 6 15 7 21 8 27 9 28 10 8 11 7 13
REMARK SMILES IDX 2 14 3 15 4 16 29 17 5 18 6 19 1 20 22 21 23 22 24 23 25 24
REMARK SMILES IDX 26 25 16 26 17 27 18 28 19 29 20 30
REMARK H PARENT 8 12
ROOT
ATOM      1  C   UNL     1      -0.252 -15.801 -44.920  1.00  0.00     0.141 A 
ATOM      2  N   UNL     1      -0.442 -16.600 -45.978  1.00  0.00    -0.219 NA
ATOM      3  C   UNL     1      -0.064 -16.339 -47.238  1.00  0.00     0.224 A 
ATOM      4  N   UNL     1       0.561 -15.177 -47.490  1.00  0.00    -0.236 NA
ATOM      5  C   UNL     1       0.789 -14.319 -46.485  1.00  0.00     0.080 A 
ATOM      6  C   UNL     1       1.437 -13.127 -46.787  1.00  0.00     0.079 A 
ATOM      7  C   UNL     1       1.726 -12.170 -45.847  1.00  0.00     0.163 A 
ATOM      8  C   UNL     1       1.315 -12.482 -44.536  1.00  0.00     0.162 A 
ATOM      9  C   UNL     1       0.673 -13.661 -44.234  1.00  0.00     0.064 A 
ATOM     10  C   UNL     1       0.393 -14.599 -45.172  1.00  0.00     0.047 A 
ENDROOT
BRANCH   1  11
ATOM     11  N   UNL     1      -0.667 -16.113 -43.600  1.00  0.00    -0.340 N 
ATOM     12  H   UNL     1      -0.352 -15.532 -42.786  1.00  0.00     0.168 HD
BRANCH  11  13
ATOM     13  C   UNL     1      -1.518 -17.205 -43.261  1.00  0.00     0.041 A 
ATOM     14  C   UNL     1      -1.448 -20.684 -41.925  1.00  0.00    -0.070 C 
ATOM     15  C   UNL     1      -1.948 -19.423 -42.445  1.00  0.00     0.026 A 
ATOM     16  C   UNL     1      -3.297 -19.275 -42.602  1.00  0.00     0.017 A 
ATOM     17  C   UNL     1      -1.052 -18.404 -42.768  1.00  0.00     0.043 A 
ATOM     18  C   UNL     1      -3.788 -18.075 -43.097  1.00  0.00     0.003 A 
ATOM     19  C   UNL     1      -2.884 -17.086 -43.408  1.00  0.00     0.026 A 
ATOM     20  C   UNL     1      -1.027 -21.729 -41.492  1.00  0.00     0.010 C 
ENDBRANCH  11  13
ENDBRANCH   1  11
BRANCH   8  21
ATOM     21  O   UNL     1       1.573 -11.563 -43.528  1.00  0.00    -0.487 OA
BRANCH  21  22
ATOM     22  C   UNL     1       0.499 -10.886 -42.918  1.00  0.00     0.258 C 
BRANCH  22  23
ATOM     23  C   UNL     1      -0.019  -9.793 -43.865  1.00  0.00     0.201 C 
BRANCH  23  24
ATOM     24  O   UNL     1      -1.042  -9.119 -43.196  1.00  0.00    -0.381 OA
ATOM     25  C   UNL     1      -2.255  -9.675 -43.539  1.00  0.00     0.195 C 
ENDBRANCH  23  24
ENDBRANCH  22  23
ENDBRANCH  21  22
ENDBRANCH   8  21
BRANCH   7  26
ATOM     26  O   UNL     1       2.341 -10.986 -46.025  1.00  0.00    -0.487 OA
BRANCH  26  27
ATOM     27  C   UNL     1       3.646 -10.673 -45.658  1.00  0.00     0.258 C 
BRANCH  27  28
ATOM     28  C   UNL     1       3.902  -9.233 -45.319  1.00  0.00     0.201 C 
BRANCH  28  29
ATOM     29  O   UNL     1       3.926  -9.017 -43.950  1.00  0.00    -0.381 OA
ATOM     30  C   UNL     1       4.578  -7.842 -43.647  1.00  0.00     0.195 C 
ENDBRANCH  28  29
ENDBRANCH  27  28
ENDBRANCH  26  27
ENDBRANCH   7  26
TORSDOF 10
ENDMDL
MODEL 4
REMARK VINA RESULT:    -6.939      4.320      6.651
REMARK INTER + INTRA:         -12.116
REMARK INTER:                 -10.982
REMARK INTRA:                  -1.134
REMARK UNBOUND:                -1.120
REMARK SMILES C#Cc1cccc(Nc2ncnc3cc(OCCOC)c(OCCOC)cc23)c1
REMARK SMILES IDX 9 1 10 2 11 3 12 4 13 5 14 6 15 7 21 8 27 9 28 10 8 11 7 13
REMARK SMILES IDX 2 14 3 15 4 16 29 17 5 18 6 19 1 20 22 21 23 22 24 23 25 24
REMARK SMILES IDX 26 25 16 26 17 27 18 28 19 29 20 30
REMARK H PARENT 8 12
ROOT
ATOM      1  C   UNL     1       1.392 -14.573 -43.754  1.00  0.00     0.141 A 
ATOM      2  N   UNL     1       2.181 -15.392 -44.463  1.00  0.00    -0.219 NA
ATOM      3  C   UNL     1       3.064 -15.017 -45.398  1.00  0.00     0.224 A 
ATOM      4  N   UNL     1       3.190 -13.708 -45.671  1.00  0.00    -0.236 NA
ATOM      5  C   UNL     1       2.435 -12.821 -45.006  1.00  0.00     0.080 A 
ATOM      6  C   UNL     1       2.593 -11.475 -45.318  1.00  0.00     0.079 A 
ATOM      7  C   UNL     1       1.880 -10.473 -44.709  1.00  0.00     0.163 A 
ATOM      8  C   UNL     1       0.963 -10.908 -43.732  1.00  0.00     0.162 A 
ATOM      9  C   UNL     1       0.804 -12.238 -43.420  1.00  0.00     0.064 A 
ATOM     10  C   UNL     1       1.514 -13.219 -44.030  1.00  0.00     0.047 A 
ENDROOT
BRANCH   1  11
ATOM     11  N   UNL     1       0.467 -15.009 -42.771  1.00  0.00    -0.340 N 
ATOM     12  H   UNL     1       0.017 -14.325 -42.116  1.00  0.00     0.168 HD
BRANCH  11  13
ATOM     13  C   UNL     1       0.074 -16.366 -42.581  1.00  0.00     0.041 A 
ATOM     14  C   UNL     1       1.155 -19.543 -40.957  1.00  0.00    -0.070 C 
ATOM     15  C   UNL     1       0.362 -18.587 -41.713  1.00  0.00     0.026 A 
ATOM     16  C   UNL     1      -0.820 -19.008 -42.253  1.00  0.00     0.017 A 
ATOM     17  C   UNL     1       0.819 -17.278 -41.868  1.00  0.00     0.043 A 
ATOM     18  C   UNL     1      -1.587 -18.104 -42.976  1.00  0.00     0.003 A 
ATOM     19  C   UNL     1      -1.114 -16.820 -43.114  1.00  0.00     0.026 A 
ATOM     20  C   UNL     1       1.817 -20.331 -40.328  1.00  0.00     0.010 C 
ENDBRANCH  11  13
ENDBRANCH   1  11
BRANCH   8  21
ATOM     21  O   UNL     1       0.204  -9.953 -43.069  1.00  0.00    -0.487 OA
BRANCH  21  22
ATOM     22  C   UNL     1      -1.165  -9.823 -43.376  1.00  0.00     0.258 C 
BRANCH  22  23
ATOM     23  C   UNL     1      -1.370  -8.598 -44.281  1.00  0.00     0.201 C 
BRANCH  23  24
ATOM     24  O   UNL     1      -1.527  -9.070 -45.585  1.00  0.00    -0.381 OA
ATOM     25  C   UNL     1      -2.247 -10.244 -45.561  1.00  0.00     0.195 C 
ENDBRANCH  23  24
ENDBRANCH  22  23
ENDBRANCH  21  22
ENDBRANCH   8  21
BRANCH   7  26
ATOM     26  O   UNL     1       1.947  -9.149 -44.933  1.00  0.00    -0.487 OA
BRANCH  26  27
ATOM     27  C   UNL     1       3.080  -8.432 -45.306  1.00  0.00     0.258 C 
BRANCH  27  28
ATOM     28  C   UNL     1       4.162  -8.335 -44.271  1.00  0.00     0.201 C 
BRANCH  28  29
ATOM     29  O   UNL     1       3.651  -8.136 -42.999  1.00  0.00    -0.381 OA
ATOM     30  C   UNL     1       4.523  -7.403 -42.224  1.00  0.00     0.195 C 
ENDBRANCH  28  29
ENDBRANCH  27  28
ENDBRANCH  26  27
ENDBRANCH   7  26
TORSDOF 10
ENDMDL
MODEL 5
REMARK VINA RESULT:    -6.877      3.061      6.433
REMARK INTER + INTRA:         -12.017
REMARK INTER:                 -10.813
REMARK INTRA:                  -1.204
REMARK UNBOUND:                -1.120
REMARK SMILES C#Cc1cccc(Nc2ncnc3cc(OCCOC)c(OCCOC)cc23)c1
REMARK SMILES IDX 9 1 10 2 11 3 12 4 13 5 14 6 15 7 21 8 27 9 28 10 8 11 7 13
REMARK SMILES IDX 2 14 3 15 4 16 29 17 5 18 6 19 1 20 22 21 23 22 24 23 25 24
REMARK SMILES IDX 26 25 16 26 17 27 18 28 19 29 20 30
REMARK H PARENT 8 12
ROOT
ATOM      1  C   UNL     1       4.310 -17.219 -41.678  1.00  0.00     0.141 A 
ATOM      2  N   UNL     1       5.366 -17.900 -41.211  1.00  0.00    -0.219 NA
ATOM      3  C   UNL     1       5.326 -19.104 -40.624  1.00  0.00     0.224 A 
ATOM      4  N   UNL     1       4.133 -19.705 -40.477  1.00  0.00    -0.236 NA
ATOM      5  C   UNL     1       3.026 -19.090 -40.917  1.00  0.00     0.080 A 
ATOM      6  C   UNL     1       1.810 -19.743 -40.745  1.00  0.00     0.079 A 
ATOM      7  C   UNL     1       0.610 -19.217 -41.152  1.00  0.00     0.163 A 
ATOM      8  C   UNL     1       0.694 -17.951 -41.765  1.00  0.00     0.162 A 
ATOM      9  C   UNL     1       1.895 -17.302 -41.937  1.00  0.00     0.064 A 
ATOM     10  C   UNL     1       3.075 -17.831 -41.530  1.00  0.00     0.047 A 
ENDROOT
BRANCH   1  11
ATOM     11  N   UNL     1       4.394 -15.944 -42.294  1.00  0.00    -0.340 N 
ATOM     12  H   UNL     1       4.138 -15.075 -41.766  1.00  0.00     0.168 HD
BRANCH  11  13
ATOM     13  C   UNL     1       4.814 -15.725 -43.638  1.00  0.00     0.041 A 
ATOM     14  C   UNL     1       4.353 -17.000 -47.110  1.00  0.00    -0.070 C 
ATOM     15  C   UNL     1       4.823 -16.198 -45.993  1.00  0.00     0.026 A 
ATOM     16  C   UNL     1       5.695 -15.179 -46.248  1.00  0.00     0.017 A 
ATOM     17  C   UNL     1       4.376 -16.481 -44.702  1.00  0.00     0.043 A 
ATOM     18  C   UNL     1       6.150 -14.403 -45.189  1.00  0.00     0.003 A 
ATOM     19  C   UNL     1       5.695 -14.704 -43.927  1.00  0.00     0.026 A 
ATOM     20  C   UNL     1       3.960 -17.670 -48.034  1.00  0.00     0.010 C 
ENDBRANCH  11  13
ENDBRANCH   1  11
BRANCH   8  21
ATOM     21  O   UNL     1      -0.478 -17.353 -42.206  1.00  0.00    -0.487 OA
BRANCH  21  22
ATOM     22  C   UNL     1      -0.405 -16.261 -43.095  1.00  0.00     0.258 C 
BRANCH  22  23
ATOM     23  C   UNL     1      -0.819 -16.720 -44.501  1.00  0.00     0.201 C 
BRANCH  23  24
ATOM     24  O   UNL     1      -0.781 -15.596 -45.328  1.00  0.00    -0.381 OA
ATOM     25  C   UNL     1       0.344 -15.651 -46.122  1.00  0.00     0.195 C 
ENDBRANCH  23  24
ENDBRANCH  22  23
ENDBRANCH  21  22
ENDBRANCH   8  21
BRANCH   7  26
ATOM     26  O   UNL     1      -0.617 -19.753 -41.034  1.00  0.00    -0.487 OA
BRANCH  26  27
ATOM     27  C   UNL     1      -1.162 -20.749 -41.840  1.00  0.00     0.258 C 
BRANCH  27  28
ATOM     28  C   UNL     1      -1.269 -22.110 -41.216  1.00  0.00     0.201 C 
BRANCH  28  29
ATOM     29  O   UNL     1      -2.574 -22.576 -41.202  1.00  0.00    -0.381 OA
ATOM     30  C   UNL     1      -3.471 -21.538 -41.320  1.00  0.00     0.195 C 
ENDBRANCH  28  29
ENDBRANCH  27  28
ENDBRANCH  26  27
ENDBRANCH   7  26
TORSDOF 10
ENDMDL
MODEL 6
REMARK VINA RESULT:    -6.862      7.281     10.086
REMARK INTER + INTRA:         -11.993
REMARK INTER:                 -10.619
REMARK INTRA:                  -1.374
REMARK UNBOUND:                -1.120
REMARK SMILES C#Cc1cccc(Nc2ncnc3cc(OCCOC)c(OCCOC)cc23)c1
REMARK SMILES IDX 9 1 10 2 11 3 12 4 13 5 14 6 15 7 21 8 27 9 28 10 8 11 7 13
REMARK SMILES IDX 2 14 3 15 4 16 29 17 5 18 6 19 1 20 22 21 23 22 24 23 25 24
REMARK SMILES IDX 26 25 16 26 17 27 18 28 19 29 20 30
REMARK H PARENT 8 12
ROOT
ATOM      1  C   UNL     1       2.306 -10.056 -45.563  1.00  0.00     0.141 A 
ATOM      2  N   UNL     1       2.690 -11.292 -45.909  1.00  0.00    -0.219 NA
ATOM      3  C   UNL     1       1.927 -12.393 -45.863  1.00  0.00     0.224 A 
ATOM      4  N   UNL     1       0.659 -12.275 -45.435  1.00  0.00    -0.236 NA
ATOM      5  C   UNL     1       0.196 -11.072 -45.069  1.00  0.00     0.080 A 
ATOM      6  C   UNL     1      -1.121 -10.991 -44.630  1.00  0.00     0.079 A 
ATOM      7  C   UNL     1      -1.709  -9.818 -44.229  1.00  0.00     0.163 A 
ATOM      8  C   UNL     1      -0.875  -8.684 -44.292  1.00  0.00     0.162 A 
ATOM      9  C   UNL     1       0.428  -8.760 -44.725  1.00  0.00     0.064 A 
ATOM     10  C   UNL     1       0.998  -9.925 -45.119  1.00  0.00     0.047 A 
ENDROOT
BRANCH   1  11
ATOM     11  N   UNL     1       3.145  -8.914 -45.624  1.00  0.00    -0.340 N 
ATOM     12  H   UNL     1       3.136  -8.286 -46.464  1.00  0.00     0.168 HD
BRANCH  11  13
ATOM     13  C   UNL     1       4.049  -8.523 -44.594  1.00  0.00     0.041 A 
ATOM     14  C   UNL     1       4.193  -6.726 -41.332  1.00  0.00    -0.070 C 
ATOM     15  C   UNL     1       4.607  -7.476 -42.506  1.00  0.00     0.026 A 
ATOM     16  C   UNL     1       5.920  -7.833 -42.618  1.00  0.00     0.017 A 
ATOM     17  C   UNL     1       3.666  -7.811 -43.479  1.00  0.00     0.043 A 
ATOM     18  C   UNL     1       6.329  -8.552 -43.733  1.00  0.00     0.003 A 
ATOM     19  C   UNL     1       5.381  -8.869 -44.679  1.00  0.00     0.026 A 
ATOM     20  C   UNL     1       3.844  -6.103 -40.359  1.00  0.00     0.010 C 
ENDBRANCH  11  13
ENDBRANCH   1  11
BRANCH   8  21
ATOM     21  O   UNL     1      -1.399  -7.459 -43.903  1.00  0.00    -0.487 OA
BRANCH  21  22
ATOM     22  C   UNL     1      -1.088  -6.306 -44.652  1.00  0.00     0.258 C 
BRANCH  22  23
ATOM     23  C   UNL     1      -2.280  -5.946 -45.552  1.00  0.00     0.201 C 
BRANCH  23  24
ATOM     24  O   UNL     1      -3.438  -6.319 -44.870  1.00  0.00    -0.381 OA
ATOM     25  C   UNL     1      -4.258  -7.032 -45.719  1.00  0.00     0.195 C 
ENDBRANCH  23  24
ENDBRANCH  22  23
ENDBRANCH  21  22
ENDBRANCH   8  21
BRANCH   7  26
ATOM     26  O   UNL     1      -2.964  -9.625 -43.784  1.00  0.00    -0.487 OA
BRANCH  26  27
ATOM     27  C   UNL     1      -4.081 -10.388 -44.113  1.00  0.00     0.258 C 
BRANCH  27  28
ATOM     28  C   UNL     1      -5.314 -10.127 -43.298  1.00  0.00     0.201 C 
BRANCH  28  29
ATOM     29  O   UNL     1      -5.115  -9.130 -42.357  1.00  0.00    -0.381 OA
ATOM     30  C   UNL     1      -5.950  -8.059 -42.588  1.00  0.00     0.195 C 
ENDBRANCH  28  29
ENDBRANCH  27  28
ENDBRANCH  26  27
ENDBRANCH   7  26
TORSDOF 10
ENDMDL
MODEL 7
REMARK VINA RESULT:    -6.838      2.326      4.461
REMARK INTER + INTRA:         -11.956
REMARK INTER:                 -10.838
REMARK INTRA:                  -1.118
REMARK UNBOUND:                -1.120
REMARK SMILES C#Cc1cccc(Nc2ncnc3cc(OCCOC)c(OCCOC)cc23)c1
REMARK SMILES IDX 9 1 10 2 11 3 12 4 13 5 14 6 15 7 21 8 27 9 28 10 8 11 7 13
REMARK SMILES IDX 2 14 3 15 4 16 29 17 5 18 6 19 1 20 22 21 23 22 24 23 25 24
REMARK SMILES IDX 26 25 16 26 17 27 18 28 19 29 20 30
REMARK H PARENT 8 12
ROOT
ATOM      1  C   UNL     1       1.880 -18.638 -41.282  1.00  0.00     0.141 A 
ATOM      2  N   UNL     1       1.818 -19.840 -40.692  1.00  0.00    -0.219 NA
ATOM      3  C   UNL     1       0.726 -20.610 -40.591  1.00  0.00     0.224 A 
ATOM      4  N   UNL     1      -0.425 -20.161 -41.119  1.00  0.00    -0.236 NA
ATOM      5  C   UNL     1      -0.449 -18.966 -41.727  1.00  0.00     0.080 A 
ATOM      6  C   UNL     1      -1.659 -18.535 -42.260  1.00  0.00     0.079 A 
ATOM      7  C   UNL     1      -1.811 -17.334 -42.905  1.00  0.00     0.163 A 
ATOM      8  C   UNL     1      -0.641 -16.554 -42.991  1.00  0.00     0.162 A 
ATOM      9  C   UNL     1       0.558 -16.977 -42.466  1.00  0.00     0.064 A 
ATOM     10  C   UNL     1       0.696 -18.166 -41.830  1.00  0.00     0.047 A 
ENDROOT
BRANCH   1  11
ATOM     11  N   UNL     1       3.057 -17.852 -41.369  1.00  0.00    -0.340 N 
ATOM     12  H   UNL     1       3.008 -16.839 -41.634  1.00  0.00     0.168 HD
BRANCH  11  13
ATOM     13  C   UNL     1       4.372 -18.340 -41.115  1.00  0.00     0.041 A 
ATOM     14  C   UNL     1       7.076 -20.422 -42.614  1.00  0.00    -0.070 C 
ATOM     15  C   UNL     1       6.354 -19.574 -41.681  1.00  0.00     0.026 A 
ATOM     16  C   UNL     1       6.971 -19.218 -40.516  1.00  0.00     0.017 A 
ATOM     17  C   UNL     1       5.063 -19.146 -41.993  1.00  0.00     0.043 A 
ATOM     18  C   UNL     1       6.293 -18.406 -39.617  1.00  0.00     0.003 A 
ATOM     19  C   UNL     1       5.021 -17.998 -39.948  1.00  0.00     0.026 A 
ATOM     20  C   UNL     1       7.672 -21.126 -43.393  1.00  0.00     0.010 C 
ENDBRANCH  11  13
ENDBRANCH   1  11
BRANCH   8  21
ATOM     21  O   UNL     1      -0.714 -15.325 -43.631  1.00  0.00    -0.487 OA
BRANCH  21  22
ATOM     22  C   UNL     1       0.070 -15.096 -44.780  1.00  0.00     0.258 C 
BRANCH  22  23
ATOM     23  C   UNL     1      -0.526 -15.870 -45.966  1.00  0.00     0.201 C 
BRANCH  23  24
ATOM     24  O   UNL     1      -0.497 -15.018 -47.071  1.00  0.00    -0.381 OA
ATOM     25  C   UNL     1      -0.110 -13.759 -46.666  1.00  0.00     0.195 C 
ENDBRANCH  23  24
ENDBRANCH  22  23
ENDBRANCH  21  22
ENDBRANCH   8  21
BRANCH   7  26
ATOM     26  O   UNL     1      -2.927 -16.817 -43.451  1.00  0.00    -0.487 OA
BRANCH  26  27
ATOM     27  C   UNL     1      -4.127 -17.488 -43.663  1.00  0.00     0.258 C 
BRANCH  27  28
ATOM     28  C   UNL     1      -5.281 -17.051 -42.810  1.00  0.00     0.201 C 
BRANCH  28  29
ATOM     29  O   UNL     1      -5.113 -17.410 -41.482  1.00  0.00    -0.381 OA
ATOM     30  C   UNL     1      -5.237 -18.772 -41.319  1.00  0.00     0.195 C 
ENDBRANCH  28  29
ENDBRANCH  27  28
ENDBRANCH  26  27
ENDBRANCH   7  26
TORSDOF 10
ENDMDL
MODEL 8
REMARK VINA RESULT:    -6.824      7.041     10.521
REMARK INTER + INTRA:         -11.933
REMARK INTER:                 -10.730
REMARK INTRA:                  -1.204
REMARK UNBOUND:                -1.120
REMARK SMILES C#Cc1cccc(Nc2ncnc3cc(OCCOC)c(OCCOC)cc23)c1
REMARK SMILES IDX 9 1 10 2 11 3 12 4 13 5 14 6 15 7 21 8 27 9 28 10 8 11 7 13
REMARK SMILES IDX 2 14 3 15 4 16 29 17 5 18 6 19 1 20 22 21 23 22 24 23 25 24
REMARK SMILES IDX 26 25 16 26 17 27 18 28 19 29 20 30
REMARK H PARENT 8 12
ROOT
ATOM      1  C   UNL     1      -0.350 -11.345 -44.740  1.00  0.00     0.141 A 
ATOM      2  N   UNL     1      -0.399 -12.530 -45.364  1.00  0.00    -0.219 NA
ATOM      3  C   UNL     1       0.575 -13.066 -46.111  1.00  0.00     0.224 A 
ATOM      4  N   UNL     1       1.715 -12.373 -46.268  1.00  0.00    -0.236 NA
ATOM      5  C   UNL     1       1.846 -11.176 -45.678  1.00  0.00     0.080 A 
ATOM      6  C   UNL     1       3.040 -10.489 -45.865  1.00  0.00     0.079 A 
ATOM      7  C   UNL     1       3.293  -9.258 -45.315  1.00  0.00     0.163 A 
ATOM      8  C   UNL     1       2.246  -8.729 -44.535  1.00  0.00     0.162 A 
ATOM      9  C   UNL     1       1.063  -9.406 -44.347  1.00  0.00     0.064 A 
ATOM     10  C   UNL     1       0.824 -10.622 -44.897  1.00  0.00     0.047 A 
ENDROOT
BRANCH   1  11
ATOM     11  N   UNL     1      -1.404 -10.811 -43.957  1.00  0.00    -0.340 N 
ATOM     12  H   UNL     1      -1.525 -11.094 -42.954  1.00  0.00     0.168 HD
BRANCH  11  13
ATOM     13  C   UNL     1      -2.369  -9.876 -44.434  1.00  0.00     0.041 A 
ATOM     14  C   UNL     1      -5.089  -7.606 -43.277  1.00  0.00    -0.070 C 
ATOM     15  C   UNL     1      -4.161  -8.302 -44.152  1.00  0.00     0.026 A 
ATOM     16  C   UNL     1      -4.206  -8.035 -45.490  1.00  0.00     0.017 A 
ATOM     17  C   UNL     1      -3.253  -9.214 -43.613  1.00  0.00     0.043 A 
ATOM     18  C   UNL     1      -3.323  -8.691 -46.337  1.00  0.00     0.003 A 
ATOM     19  C   UNL     1      -2.439  -9.586 -45.780  1.00  0.00     0.026 A 
ATOM     20  C   UNL     1      -5.858  -7.031 -42.546  1.00  0.00     0.010 C 
ENDBRANCH  11  13
ENDBRANCH   1  11
BRANCH   8  21
ATOM     21  O   UNL     1       2.427  -7.487 -43.942  1.00  0.00    -0.487 OA
BRANCH  21  22
ATOM     22  C   UNL     1       2.453  -6.333 -44.750  1.00  0.00     0.258 C 
BRANCH  22  23
ATOM     23  C   UNL     1       1.078  -6.141 -45.409  1.00  0.00     0.201 C 
BRANCH  23  24
ATOM     24  O   UNL     1       0.212  -5.665 -44.424  1.00  0.00    -0.381 OA
ATOM     25  C   UNL     1      -1.049  -6.178 -44.637  1.00  0.00     0.195 C 
ENDBRANCH  23  24
ENDBRANCH  22  23
ENDBRANCH  21  22
ENDBRANCH   8  21
BRANCH   7  26
ATOM     26  O   UNL     1       4.402  -8.505 -45.432  1.00  0.00    -0.487 OA
BRANCH  26  27
ATOM     27  C   UNL     1       5.584  -8.661 -44.713  1.00  0.00     0.258 C 
BRANCH  27  28
ATOM     28  C   UNL     1       6.288  -7.393 -44.329  1.00  0.00     0.201 C 
BRANCH  28  29
ATOM     29  O   UNL     1       5.678  -6.763 -43.256  1.00  0.00    -0.381 OA
ATOM     30  C   UNL     1       5.395  -7.660 -42.251  1.00  0.00     0.195 C 
ENDBRANCH  28  29
ENDBRANCH  27  28
ENDBRANCH  26  27
ENDBRANCH   7  26
TORSDOF 10
ENDMDL
MODEL 9
REMARK VINA RESULT:    -6.811      6.960     10.277
REMARK INTER + INTRA:         -11.913
REMARK INTER:                 -10.749
REMARK INTRA:                  -1.164
REMARK UNBOUND:                -1.120
REMARK SMILES C#Cc1cccc(Nc2ncnc3cc(OCCOC)c(OCCOC)cc23)c1
REMARK SMILES IDX 9 1 10 2 11 3 12 4 13 5 14 6 15 7 21 8 27 9 28 10 8 11 7 13
REMARK SMILES IDX 2 14 3 15 4 16 29 17 5 18 6 19 1 20 22 21 23 22 24 23 25 24
REMARK SMILES IDX 26 25 16 26 17 27 18 28 19 29 20 30
REMARK H PARENT 8 12
ROOT
ATOM      1  C   UNL     1      -0.296 -11.493 -44.800  1.00  0.00     0.141 A 
ATOM      2  N   UNL     1      -0.413 -12.643 -45.478  1.00  0.00    -0.219 NA
ATOM      3  C   UNL     1       0.534 -13.204 -46.242  1.00  0.00     0.224 A 
ATOM      4  N   UNL     1       1.716 -12.577 -46.359  1.00  0.00    -0.236 NA
ATOM      5  C   UNL     1       1.915 -11.419 -45.713  1.00  0.00     0.080 A 
ATOM      6  C   UNL     1       3.152 -10.800 -45.860  1.00  0.00     0.079 A 
ATOM      7  C   UNL     1       3.475  -9.613 -45.252  1.00  0.00     0.163 A 
ATOM      8  C   UNL     1       2.454  -9.056 -44.456  1.00  0.00     0.162 A 
ATOM      9  C   UNL     1       1.229  -9.666 -44.309  1.00  0.00     0.064 A 
ATOM     10  C   UNL     1       0.921 -10.838 -44.915  1.00  0.00     0.047 A 
ENDROOT
BRANCH   1  11
ATOM     11  N   UNL     1      -1.324 -10.930 -44.001  1.00  0.00    -0.340 N 
ATOM     12  H   UNL     1      -1.439 -11.212 -42.998  1.00  0.00     0.168 HD
BRANCH  11  13
ATOM     13  C   UNL     1      -2.267  -9.966 -44.463  1.00  0.00     0.041 A 
ATOM     14  C   UNL     1      -4.962  -7.683 -43.274  1.00  0.00    -0.070 C 
ATOM     15  C   UNL     1      -4.035  -8.370 -44.157  1.00  0.00     0.026 A 
ATOM     16  C   UNL     1      -4.061  -8.065 -45.488  1.00  0.00     0.017 A 
ATOM     17  C   UNL     1      -3.150  -9.311 -43.634  1.00  0.00     0.043 A 
ATOM     18  C   UNL     1      -3.178  -8.712 -46.343  1.00  0.00     0.003 A 
ATOM     19  C   UNL     1      -2.316  -9.637 -45.801  1.00  0.00     0.026 A 
ATOM     20  C   UNL     1      -5.730  -7.115 -42.536  1.00  0.00     0.010 C 
ENDBRANCH  11  13
ENDBRANCH   1  11
BRANCH   8  21
ATOM     21  O   UNL     1       2.706  -7.856 -43.806  1.00  0.00    -0.487 OA
BRANCH  21  22
ATOM     22  C   UNL     1       2.145  -6.665 -44.311  1.00  0.00     0.258 C 
BRANCH  22  23
ATOM     23  C   UNL     1       3.056  -5.481 -43.953  1.00  0.00     0.201 C 
BRANCH  23  24
ATOM     24  O   UNL     1       4.371  -5.895 -44.162  1.00  0.00    -0.381 OA
ATOM     25  C   UNL     1       4.808  -5.427 -45.383  1.00  0.00     0.195 C 
ENDBRANCH  23  24
ENDBRANCH  22  23
ENDBRANCH  21  22
ENDBRANCH   8  21
BRANCH   7  26
ATOM     26  O   UNL     1       4.629  -8.927 -45.326  1.00  0.00    -0.487 OA
BRANCH  26  27
ATOM     27  C   UNL     1       5.911  -9.453 -45.195  1.00  0.00     0.258 C 
BRANCH  27  28
ATOM     28  C   UNL     1       7.039  -8.502 -45.467  1.00  0.00     0.201 C 
BRANCH  28  29
ATOM     29  O   UNL     1       7.914  -8.411 -44.396  1.00  0.00    -0.381 OA
ATOM     30  C   UNL     1       7.305  -8.803 -43.225  1.00  0.00     0.195 C 
ENDBRANCH  28  29
ENDBRANCH  27  28
ENDBRANCH  26  27
ENDBRANCH   7  26
TORSDOF 10
ENDMDL
MODEL 10
REMARK VINA RESULT:    -6.798      7.449     10.348
REMARK INTER + INTRA:         -11.892
REMARK INTER:                 -10.635
REMARK INTRA:                  -1.257
REMARK UNBOUND:                -1.120
REMARK SMILES C#Cc1cccc(Nc2ncnc3cc(OCCOC)c(OCCOC)cc23)c1
REMARK SMILES IDX 9 1 10 2 11 3 12 4 13 5 14 6 15 7 21 8 27 9 28 10 8 11 7 13
REMARK SMILES IDX 2 14 3 15 4 16 29 17 5 18 6 19 1 20 22 21 23 22 24 23 25 24
REMARK SMILES IDX 26 25 16 26 17 27 18 28 19 29 20 30
REMARK H PARENT 8 12
ROOT
ATOM      1  C   UNL     1       1.366  -7.178 -45.612  1.00  0.00     0.141 A 
ATOM      2  N   UNL     1       1.033  -5.889 -45.760  1.00  0.00    -0.219 NA
ATOM      3  C   UNL     1      -0.206  -5.384 -45.680  1.00  0.00     0.224 A 
ATOM      4  N   UNL     1      -1.224  -6.224 -45.431  1.00  0.00    -0.236 NA
ATOM      5  C   UNL     1      -0.976  -7.532 -45.270  1.00  0.00     0.080 A 
ATOM      6  C   UNL     1      -2.056  -8.369 -45.015  1.00  0.00     0.079 A 
ATOM      7  C   UNL     1      -1.931  -9.723 -44.833  1.00  0.00     0.163 A 
ATOM      8  C   UNL     1      -0.614 -10.215 -44.924  1.00  0.00     0.162 A 
ATOM      9  C   UNL     1       0.457  -9.390 -45.176  1.00  0.00     0.064 A 
ATOM     10  C   UNL     1       0.321  -8.053 -45.354  1.00  0.00     0.047 A 
ENDROOT
BRANCH   1  11
ATOM     11  N   UNL     1       2.691  -7.675 -45.704  1.00  0.00    -0.340 N 
ATOM     12  H   UNL     1       3.048  -8.092 -46.598  1.00  0.00     0.168 HD
BRANCH  11  13
ATOM     13  C   UNL     1       3.634  -7.659 -44.635  1.00  0.00     0.041 A 
ATOM     14  C   UNL     1       4.050  -6.564 -41.096  1.00  0.00    -0.070 C 
ATOM     15  C   UNL     1       4.339  -7.144 -42.397  1.00  0.00     0.026 A 
ATOM     16  C   UNL     1       5.564  -7.713 -42.596  1.00  0.00     0.017 A 
ATOM     17  C   UNL     1       3.370  -7.110 -43.400  1.00  0.00     0.043 A 
ATOM     18  C   UNL     1       5.852  -8.273 -43.834  1.00  0.00     0.003 A 
ATOM     19  C   UNL     1       4.879  -8.225 -44.806  1.00  0.00     0.026 A 
ATOM     20  C   UNL     1       3.805  -6.081 -40.018  1.00  0.00     0.010 C 
ENDBRANCH  11  13
ENDBRANCH   1  11
BRANCH   8  21
ATOM     21  O   UNL     1      -0.405 -11.576 -44.749  1.00  0.00    -0.487 OA
BRANCH  21  22
ATOM     22  C   UNL     1       0.475 -12.257 -45.615  1.00  0.00     0.258 C 
BRANCH  22  23
ATOM     23  C   UNL     1      -0.243 -12.556 -46.940  1.00  0.00     0.201 C 
BRANCH  23  24
ATOM     24  O   UNL     1       0.416 -13.634 -47.531  1.00  0.00    -0.381 OA
ATOM     25  C   UNL     1       0.980 -14.419 -46.549  1.00  0.00     0.195 C 
ENDBRANCH  23  24
ENDBRANCH  22  23
ENDBRANCH  21  22
ENDBRANCH   8  21
BRANCH   7  26
ATOM     26  O   UNL     1      -2.900 -10.624 -44.587  1.00  0.00    -0.487 OA
BRANCH  26  27
ATOM     27  C   UNL     1      -4.212 -10.343 -44.217  1.00  0.00     0.258 C 
BRANCH  27  28
ATOM     28  C   UNL     1      -4.454 -10.174 -42.745  1.00  0.00     0.201 C 
BRANCH  28  29
ATOM     29  O   UNL     1      -5.429  -9.226 -42.482  1.00  0.00    -0.381 OA
ATOM     30  C   UNL     1      -4.917  -7.951 -42.573  1.00  0.00     0.195 C 
ENDBRANCH  28  29
ENDBRANCH  27  28
ENDBRANCH  26  27
ENDBRANCH   7  26
TORSDOF 10
ENDMDL
MODEL 11
REMARK VINA RESULT:    -6.761      6.645     10.192
REMARK INTER + INTRA:         -11.833
REMARK INTER:                 -10.521
REMARK INTRA:                  -1.312
REMARK UNBOUND:                -1.120
REMARK SMILES C#Cc1cccc(Nc2ncnc3cc(OCCOC)c(OCCOC)cc23)c1
REMARK SMILES IDX 9 1 10 2 11 3 12 4 13 5 14 6 15 7 21 8 27 9 28 10 8 11 7 13
REMARK SMILES IDX 2 14 3 15 4 16 29 17 5 18 6 19 1 20 22 21 23 22 24 23 25 24
REMARK SMILES IDX 26 25 16 26 17 27 18 28 19 29 20 30
REMARK H PARENT 8 12
ROOT
ATOM      1  C   UNL     1       0.341 -10.922 -43.588  1.00  0.00     0.141 A 
ATOM      2  N   UNL     1       0.097 -12.239 -43.538  1.00  0.00    -0.219 NA
ATOM      3  C   UNL     1       0.846 -13.198 -44.099  1.00  0.00     0.224 A 
ATOM      4  N   UNL     1       1.946 -12.835 -44.779  1.00  0.00    -0.236 NA
ATOM      5  C   UNL     1       2.262 -11.536 -44.877  1.00  0.00     0.080 A 
ATOM      6  C   UNL     1       3.407 -11.200 -45.591  1.00  0.00     0.079 A 
ATOM      7  C   UNL     1       3.834  -9.907 -45.762  1.00  0.00     0.163 A 
ATOM      8  C   UNL     1       3.021  -8.928 -45.157  1.00  0.00     0.162 A 
ATOM      9  C   UNL     1       1.887  -9.257 -44.450  1.00  0.00     0.064 A 
ATOM     10  C   UNL     1       1.475 -10.538 -44.288  1.00  0.00     0.047 A 
ENDROOT
BRANCH   1  11
ATOM     11  N   UNL     1      -0.477  -9.936 -42.980  1.00  0.00    -0.340 N 
ATOM     12  H   UNL     1      -0.291  -9.613 -42.000  1.00  0.00     0.168 HD
BRANCH  11  13
ATOM     13  C   UNL     1      -1.591  -9.312 -43.615  1.00  0.00     0.041 A 
ATOM     14  C   UNL     1      -2.552  -6.279 -45.556  1.00  0.00    -0.070 C 
ATOM     15  C   UNL     1      -2.644  -7.558 -44.873  1.00  0.00     0.026 A 
ATOM     16  C   UNL     1      -3.851  -8.196 -44.851  1.00  0.00     0.017 A 
ATOM     17  C   UNL     1      -1.513  -8.100 -44.263  1.00  0.00     0.043 A 
ATOM     18  C   UNL     1      -3.953  -9.420 -44.203  1.00  0.00     0.003 A 
ATOM     19  C   UNL     1      -2.823  -9.932 -43.610  1.00  0.00     0.026 A 
ATOM     20  C   UNL     1      -2.469  -5.217 -46.123  1.00  0.00     0.010 C 
ENDBRANCH  11  13
ENDBRANCH   1  11
BRANCH   8  21
ATOM     21  O   UNL     1       3.388  -7.596 -45.284  1.00  0.00    -0.487 OA
BRANCH  21  22
ATOM     22  C   UNL     1       4.141  -6.986 -44.260  1.00  0.00     0.258 C 
BRANCH  22  23
ATOM     23  C   UNL     1       3.246  -6.009 -43.482  1.00  0.00     0.201 C 
BRANCH  23  24
ATOM     24  O   UNL     1       3.598  -6.111 -42.136  1.00  0.00    -0.381 OA
ATOM     25  C   UNL     1       4.489  -7.150 -41.974  1.00  0.00     0.195 C 
ENDBRANCH  23  24
ENDBRANCH  22  23
ENDBRANCH  21  22
ENDBRANCH   8  21
BRANCH   7  26
ATOM     26  O   UNL     1       4.916  -9.469 -46.431  1.00  0.00    -0.487 OA
BRANCH  26  27
ATOM     27  C   UNL     1       6.245  -9.686 -46.081  1.00  0.00     0.258 C 
BRANCH  27  28
ATOM     28  C   UNL     1       7.195  -8.567 -46.393  1.00  0.00     0.201 C 
BRANCH  28  29
ATOM     29  O   UNL     1       8.166  -8.419 -45.415  1.00  0.00    -0.381 OA
ATOM     30  C   UNL     1       7.605  -8.416 -44.157  1.00  0.00     0.195 C 
ENDBRANCH  28  29
ENDBRANCH  27  28
ENDBRANCH  26  27
ENDBRANCH   7  26
TORSDOF 10
ENDMDL
MODEL 12
REMARK VINA RESULT:    -6.709      7.739     11.137
REMARK INTER + INTRA:         -11.752
REMARK INTER:                 -10.358
REMARK INTRA:                  -1.393
REMARK UNBOUND:                -1.120
REMARK SMILES C#Cc1cccc(Nc2ncnc3cc(OCCOC)c(OCCOC)cc23)c1
REMARK SMILES IDX 9 1 10 2 11 3 12 4 13 5 14 6 15 7 21 8 27 9 28 10 8 11 7 13
REMARK SMILES IDX 2 14 3 15 4 16 29 17 5 18 6 19 1 20 22 21 23 22 24 23 25 24
REMARK SMILES IDX 26 25 16 26 17 27 18 28 19 29 20 30
REMARK H PARENT 8 12
ROOT
ATOM      1  C   UNL     1      -1.281 -10.514 -45.342  1.00  0.00     0.141 A 
ATOM      2  N   UNL     1      -1.048 -11.811 -45.094  1.00  0.00    -0.219 NA
ATOM      3  C   UNL     1       0.142 -12.352 -44.800  1.00  0.00     0.224 A 
ATOM      4  N   UNL     1       1.215 -11.546 -44.743  1.00  0.00    -0.236 NA
ATOM      5  C   UNL     1       1.068 -10.234 -44.979  1.00  0.00     0.080 A 
ATOM      6  C   UNL     1       2.203  -9.433 -44.912  1.00  0.00     0.079 A 
ATOM      7  C   UNL     1       2.181  -8.079 -45.134  1.00  0.00     0.163 A 
ATOM      8  C   UNL     1       0.912  -7.548 -45.439  1.00  0.00     0.162 A 
ATOM      9  C   UNL     1      -0.213  -8.338 -45.506  1.00  0.00     0.064 A 
ATOM     10  C   UNL     1      -0.178  -9.675 -45.286  1.00  0.00     0.047 A 
ENDROOT
BRANCH   1  11
ATOM     11  N   UNL     1      -2.557  -9.979 -45.651  1.00  0.00    -0.340 N 
ATOM     12  H   UNL     1      -2.821  -9.756 -46.641  1.00  0.00     0.168 HD
BRANCH  11  13
ATOM     13  C   UNL     1      -3.568  -9.699 -44.686  1.00  0.00     0.041 A 
ATOM     14  C   UNL     1      -5.548  -6.897 -43.227  1.00  0.00    -0.070 C 
ATOM     15  C   UNL     1      -5.048  -8.237 -43.484  1.00  0.00     0.026 A 
ATOM     16  C   UNL     1      -5.583  -9.276 -42.777  1.00  0.00     0.017 A 
ATOM     17  C   UNL     1      -4.047  -8.432 -44.436  1.00  0.00     0.043 A 
ATOM     18  C   UNL     1      -5.116 -10.562 -43.013  1.00  0.00     0.003 A 
ATOM     19  C   UNL     1      -4.128 -10.726 -43.956  1.00  0.00     0.026 A 
ATOM     20  C   UNL     1      -5.959  -5.782 -43.019  1.00  0.00     0.010 C 
ENDBRANCH  11  13
ENDBRANCH   1  11
BRANCH   8  21
ATOM     21  O   UNL     1       0.808  -6.184 -45.675  1.00  0.00    -0.487 OA
BRANCH  21  22
ATOM     22  C   UNL     1       0.014  -5.393 -44.820  1.00  0.00     0.258 C 
BRANCH  22  23
ATOM     23  C   UNL     1      -1.035  -4.639 -45.652  1.00  0.00     0.201 C 
BRANCH  23  24
ATOM     24  O   UNL     1      -2.263  -4.798 -45.009  1.00  0.00    -0.381 OA
ATOM     25  C   UNL     1      -2.071  -5.460 -43.816  1.00  0.00     0.195 C 
ENDBRANCH  23  24
ENDBRANCH  22  23
ENDBRANCH  21  22
ENDBRANCH   8  21
BRANCH   7  26
ATOM     26  O   UNL     1       3.209  -7.213 -45.100  1.00  0.00    -0.487 OA
BRANCH  26  27
ATOM     27  C   UNL     1       3.826  -6.710 -43.958  1.00  0.00     0.258 C 
BRANCH  27  28
ATOM     28  C   UNL     1       5.241  -7.154 -43.730  1.00  0.00     0.201 C 
BRANCH  28  29
ATOM     29  O   UNL     1       5.625  -7.012 -42.406  1.00  0.00    -0.381 OA
ATOM     30  C   UNL     1       4.528  -6.994 -41.572  1.00  0.00     0.195 C 
ENDBRANCH  28  29
ENDBRANCH  27  28
ENDBRANCH  26  27
ENDBRANCH   7  26
TORSDOF 10
ENDMDL
MODEL 13
REMARK VINA RESULT:    -6.705      2.503      4.849
REMARK INTER + INTRA:         -11.745
REMARK INTER:                 -10.363
REMARK INTRA:                  -1.382
REMARK UNBOUND:                -1.120
REMARK SMILES C#Cc1cccc(Nc2ncnc3cc(OCCOC)c(OCCOC)cc23)c1
REMARK SMILES IDX 9 1 10 2 11 3 12 4 13 5 14 6 15 7 21 8 27 9 28 10 8 11 7 13
REMARK SMILES IDX 2 14 3 15 4 16 29 17 5 18 6 19 1 20 22 21 23 22 24 23 25 24
REMARK SMILES IDX 26 25 16 26 17 27 18 28 19 29 20 30
REMARK H PARENT 8 12
ROOT
ATOM      1  C   UNL     1       2.442 -18.398 -41.053  1.00  0.00     0.141 A 
ATOM      2  N   UNL     1       2.576 -19.591 -40.457  1.00  0.00    -0.219 NA
ATOM      3  C   UNL     1       1.621 -20.524 -40.343  1.00  0.00     0.224 A 
ATOM      4  N   UNL     1       0.410 -20.267 -40.863  1.00  0.00    -0.236 NA
ATOM      5  C   UNL     1       0.191 -19.094 -41.477  1.00  0.00     0.080 A 
ATOM      6  C   UNL     1      -1.076 -18.864 -42.001  1.00  0.00     0.079 A 
ATOM      7  C   UNL     1      -1.422 -17.706 -42.649  1.00  0.00     0.163 A 
ATOM      8  C   UNL     1      -0.391 -16.751 -42.750  1.00  0.00     0.162 A 
ATOM      9  C   UNL     1       0.864 -16.975 -42.232  1.00  0.00     0.064 A 
ATOM     10  C   UNL     1       1.194 -18.124 -41.593  1.00  0.00     0.047 A 
ENDROOT
BRANCH   1  11
ATOM     11  N   UNL     1       3.478 -17.436 -41.153  1.00  0.00    -0.340 N 
ATOM     12  H   UNL     1       3.506 -16.608 -40.510  1.00  0.00     0.168 HD
BRANCH  11  13
ATOM     13  C   UNL     1       4.541 -17.493 -42.101  1.00  0.00     0.041 A 
ATOM     14  C   UNL     1       5.602 -16.163 -45.418  1.00  0.00    -0.070 C 
ATOM     15  C   UNL     1       5.618 -16.897 -44.164  1.00  0.00     0.026 A 
ATOM     16  C   UNL     1       6.710 -17.665 -43.876  1.00  0.00     0.017 A 
ATOM     17  C   UNL     1       4.534 -16.802 -43.292  1.00  0.00     0.043 A 
ATOM     18  C   UNL     1       6.740 -18.370 -42.680  1.00  0.00     0.003 A 
ATOM     19  C   UNL     1       5.658 -18.259 -41.838  1.00  0.00     0.026 A 
ATOM     20  C   UNL     1       5.582 -15.551 -46.457  1.00  0.00     0.010 C 
ENDBRANCH  11  13
ENDBRANCH   1  11
BRANCH   8  21
ATOM     21  O   UNL     1      -0.663 -15.552 -43.394  1.00  0.00    -0.487 OA
BRANCH  21  22
ATOM     22  C   UNL     1       0.404 -14.719 -43.786  1.00  0.00     0.258 C 
BRANCH  22  23
ATOM     23  C   UNL     1       0.545 -14.755 -45.315  1.00  0.00     0.201 C 
BRANCH  23  24
ATOM     24  O   UNL     1      -0.671 -15.207 -45.830  1.00  0.00    -0.381 OA
ATOM     25  C   UNL     1      -0.483 -15.655 -47.119  1.00  0.00     0.195 C 
ENDBRANCH  23  24
ENDBRANCH  22  23
ENDBRANCH  21  22
ENDBRANCH   8  21
BRANCH   7  26
ATOM     26  O   UNL     1      -2.610 -17.376 -43.188  1.00  0.00    -0.487 OA
BRANCH  26  27
ATOM     27  C   UNL     1      -3.754 -18.167 -43.207  1.00  0.00     0.258 C 
BRANCH  27  28
ATOM     28  C   UNL     1      -4.805 -17.822 -42.193  1.00  0.00     0.201 C 
BRANCH  28  29
ATOM     29  O   UNL     1      -4.783 -18.679 -41.106  1.00  0.00    -0.381 OA
ATOM     30  C   UNL     1      -4.630 -19.987 -41.510  1.00  0.00     0.195 C 
ENDBRANCH  28  29
ENDBRANCH  27  28
ENDBRANCH  26  27
ENDBRANCH   7  26
TORSDOF 10
ENDMDL
MODEL 14
REMARK VINA RESULT:    -6.703      6.552      8.916
REMARK INTER + INTRA:         -11.741
REMARK INTER:                 -10.335
REMARK INTRA:                  -1.406
REMARK UNBOUND:                -1.120
REMARK SMILES C#Cc1cccc(Nc2ncnc3cc(OCCOC)c(OCCOC)cc23)c1
REMARK SMILES IDX 9 1 10 2 11 3 12 4 13 5 14 6 15 7 21 8 27 9 28 10 8 11 7 13
REMARK SMILES IDX 2 14 3 15 4 16 29 17 5 18 6 19 1 20 22 21 23 22 24 23 25 24
REMARK SMILES IDX 26 25 16 26 17 27 18 28 19 29 20 30
REMARK H PARENT 8 12
ROOT
ATOM      1  C   UNL     1       1.452 -11.418 -44.180  1.00  0.00     0.141 A 
ATOM      2  N   UNL     1       2.589 -11.129 -44.827  1.00  0.00    -0.219 NA
ATOM      3  C   UNL     1       2.860  -9.984 -45.467  1.00  0.00     0.224 A 
ATOM      4  N   UNL     1       1.924  -9.020 -45.478  1.00  0.00    -0.236 NA
ATOM      5  C   UNL     1       0.756  -9.229 -44.854  1.00  0.00     0.080 A 
ATOM      6  C   UNL     1      -0.188  -8.208 -44.888  1.00  0.00     0.079 A 
ATOM      7  C   UNL     1      -1.419  -8.302 -44.289  1.00  0.00     0.163 A 
ATOM      8  C   UNL     1      -1.665  -9.521 -43.626  1.00  0.00     0.162 A 
ATOM      9  C   UNL     1      -0.733 -10.532 -43.590  1.00  0.00     0.064 A 
ATOM     10  C   UNL     1       0.479 -10.428 -44.187  1.00  0.00     0.047 A 
ENDROOT
BRANCH   1  11
ATOM     11  N   UNL     1       1.202 -12.644 -43.514  1.00  0.00    -0.340 N 
ATOM     12  H   UNL     1       1.432 -12.760 -42.498  1.00  0.00     0.168 HD
BRANCH  11  13
ATOM     13  C   UNL     1       0.638 -13.797 -44.135  1.00  0.00     0.041 A 
ATOM     14  C   UNL     1      -0.949 -17.079 -43.355  1.00  0.00    -0.070 C 
ATOM     15  C   UNL     1      -0.416 -15.955 -44.107  1.00  0.00     0.026 A 
ATOM     16  C   UNL     1      -0.474 -16.002 -45.471  1.00  0.00     0.017 A 
ATOM     17  C   UNL     1       0.133 -14.867 -43.430  1.00  0.00     0.043 A 
ATOM     18  C   UNL     1       0.029 -14.934 -46.202  1.00  0.00     0.003 A 
ATOM     19  C   UNL     1       0.566 -13.874 -45.510  1.00  0.00     0.026 A 
ATOM     20  C   UNL     1      -1.390 -18.009 -42.724  1.00  0.00     0.010 C 
ENDBRANCH  11  13
ENDBRANCH   1  11
BRANCH   8  21
ATOM     21  O   UNL     1      -2.888  -9.691 -42.993  1.00  0.00    -0.487 OA
BRANCH  21  22
ATOM     22  C   UNL     1      -3.946 -10.311 -43.688  1.00  0.00     0.258 C 
BRANCH  22  23
ATOM     23  C   UNL     1      -5.267  -9.606 -43.341  1.00  0.00     0.201 C 
BRANCH  23  24
ATOM     24  O   UNL     1      -4.983  -8.666 -42.350  1.00  0.00    -0.381 OA
ATOM     25  C   UNL     1      -5.747  -7.538 -42.559  1.00  0.00     0.195 C 
ENDBRANCH  23  24
ENDBRANCH  22  23
ENDBRANCH  21  22
ENDBRANCH   8  21
BRANCH   7  26
ATOM     26  O   UNL     1      -2.404  -7.387 -44.263  1.00  0.00    -0.487 OA
BRANCH  26  27
ATOM     27  C   UNL     1      -3.226  -7.030 -45.328  1.00  0.00     0.258 C 
BRANCH  27  28
ATOM     28  C   UNL     1      -3.064  -5.628 -45.838  1.00  0.00     0.201 C 
BRANCH  28  29
ATOM     29  O   UNL     1      -2.048  -5.529 -46.775  1.00  0.00    -0.381 OA
ATOM     30  C   UNL     1      -1.033  -4.717 -46.319  1.00  0.00     0.195 C 
ENDBRANCH  28  29
ENDBRANCH  27  28
ENDBRANCH  26  27
ENDBRANCH   7  26
TORSDOF 10
ENDMDL
MODEL 15
REMARK VINA RESULT:    -6.594      2.660      6.127
REMARK INTER + INTRA:         -11.569
REMARK INTER:                 -10.188
REMARK INTRA:                  -1.381
REMARK UNBOUND:                -1.120
REMARK SMILES C#Cc1cccc(Nc2ncnc3cc(OCCOC)c(OCCOC)cc23)c1
REMARK SMILES IDX 9 1 10 2 11 3 12 4 13 5 14 6 15 7 21 8 27 9 28 10 8 11 7 13
REMARK SMILES IDX 2 14 3 15 4 16 29 17 5 18 6 19 1 20 22 21 23 22 24 23 25 24
REMARK SMILES IDX 26 25 16 26 17 27 18 28 19 29 20 30
REMARK H PARENT 8 12
ROOT
ATOM      1  C   UNL     1       0.399 -15.542 -43.619  1.00  0.00     0.141 A 
ATOM      2  N   UNL     1      -0.161 -14.864 -44.630  1.00  0.00    -0.219 NA
ATOM      3  C   UNL     1       0.491 -14.316 -45.665  1.00  0.00     0.224 A 
ATOM      4  N   UNL     1       1.827 -14.442 -45.718  1.00  0.00    -0.236 NA
ATOM      5  C   UNL     1       2.466 -15.107 -44.744  1.00  0.00     0.080 A 
ATOM      6  C   UNL     1       3.850 -15.215 -44.834  1.00  0.00     0.079 A 
ATOM      7  C   UNL     1       4.615 -15.868 -43.901  1.00  0.00     0.163 A 
ATOM      8  C   UNL     1       3.893 -16.431 -42.829  1.00  0.00     0.162 A 
ATOM      9  C   UNL     1       2.524 -16.326 -42.738  1.00  0.00     0.064 A 
ATOM     10  C   UNL     1       1.779 -15.677 -43.666  1.00  0.00     0.047 A 
ENDROOT
BRANCH   1  11
ATOM     11  N   UNL     1      -0.327 -16.108 -42.540  1.00  0.00    -0.340 N 
ATOM     12  H   UNL     1      -0.266 -15.696 -41.578  1.00  0.00     0.168 HD
BRANCH  11  13
ATOM     13  C   UNL     1      -1.175 -17.248 -42.650  1.00  0.00     0.041 A 
ATOM     14  C   UNL     1      -1.300 -20.903 -41.932  1.00  0.00    -0.070 C 
ATOM     15  C   UNL     1      -1.698 -19.575 -42.368  1.00  0.00     0.026 A 
ATOM     16  C   UNL     1      -2.948 -19.412 -42.893  1.00  0.00     0.017 A 
ATOM     17  C   UNL     1      -0.807 -18.510 -42.241  1.00  0.00     0.043 A 
ATOM     18  C   UNL     1      -3.341 -18.148 -43.311  1.00  0.00     0.003 A 
ATOM     19  C   UNL     1      -2.443 -17.114 -43.176  1.00  0.00     0.026 A 
ATOM     20  C   UNL     1      -0.964 -22.004 -41.568  1.00  0.00     0.010 C 
ENDBRANCH  11  13
ENDBRANCH   1  11
BRANCH   8  21
ATOM     21  O   UNL     1       4.596 -17.110 -41.845  1.00  0.00    -0.487 OA
BRANCH  21  22
ATOM     22  C   UNL     1       3.999 -18.215 -41.206  1.00  0.00     0.258 C 
BRANCH  22  23
ATOM     23  C   UNL     1       4.526 -19.514 -41.835  1.00  0.00     0.201 C 
BRANCH  23  24
ATOM     24  O   UNL     1       3.915 -20.574 -41.163  1.00  0.00    -0.381 OA
ATOM     25  C   UNL     1       2.594 -20.658 -41.547  1.00  0.00     0.195 C 
ENDBRANCH  23  24
ENDBRANCH  22  23
ENDBRANCH  21  22
ENDBRANCH   8  21
BRANCH   7  26
ATOM     26  O   UNL     1       5.950 -16.029 -43.884  1.00  0.00    -0.487 OA
BRANCH  26  27
ATOM     27  C   UNL     1       6.901 -15.017 -43.788  1.00  0.00     0.258 C 
BRANCH  27  28
ATOM     28  C   UNL     1       6.632 -13.962 -42.756  1.00  0.00     0.201 C 
BRANCH  28  29
ATOM     29  O   UNL     1       6.140 -12.796 -43.318  1.00  0.00    -0.381 OA
ATOM     30  C   UNL     1       7.144 -12.083 -43.935  1.00  0.00     0.195 C 
ENDBRANCH  28  29
ENDBRANCH  27  28
ENDBRANCH  26  27
ENDBRANCH   7  26
TORSDOF 10
ENDMDL
MODEL 16
REMARK VINA RESULT:    -6.592      2.957      5.880
REMARK INTER + INTRA:         -11.565
REMARK INTER:                 -10.159
REMARK INTRA:                  -1.407
REMARK UNBOUND:                -1.120
REMARK SMILES C#Cc1cccc(Nc2ncnc3cc(OCCOC)c(OCCOC)cc23)c1
REMARK SMILES IDX 9 1 10 2 11 3 12 4 13 5 14 6 15 7 21 8 27 9 28 10 8 11 7 13
REMARK SMILES IDX 2 14 3 15 4 16 29 17 5 18 6 19 1 20 22 21 23 22 24 23 25 24
REMARK SMILES IDX 26 25 16 26 17 27 18 28 19 29 20 30
REMARK H PARENT 8 12
ROOT
ATOM      1  C   UNL     1       0.323 -15.453 -43.896  1.00  0.00     0.141 A 
ATOM      2  N   UNL     1      -0.276 -14.842 -44.928  1.00  0.00    -0.219 NA
ATOM      3  C   UNL     1       0.339 -14.334 -46.004  1.00  0.00     0.224 A 
ATOM      4  N   UNL     1       1.677 -14.430 -46.081  1.00  0.00    -0.236 NA
ATOM      5  C   UNL     1       2.353 -15.026 -45.089  1.00  0.00     0.080 A 
ATOM      6  C   UNL     1       3.737 -15.105 -45.204  1.00  0.00     0.079 A 
ATOM      7  C   UNL     1       4.538 -15.689 -44.256  1.00  0.00     0.163 A 
ATOM      8  C   UNL     1       3.854 -16.212 -43.141  1.00  0.00     0.162 A 
ATOM      9  C   UNL     1       2.486 -16.137 -43.023  1.00  0.00     0.064 A 
ATOM     10  C   UNL     1       1.704 -15.556 -43.967  1.00  0.00     0.047 A 
ENDROOT
BRANCH   1  11
ATOM     11  N   UNL     1      -0.365 -15.978 -42.772  1.00  0.00    -0.340 N 
ATOM     12  H   UNL     1      -0.288 -15.519 -41.833  1.00  0.00     0.168 HD
BRANCH  11  13
ATOM     13  C   UNL     1      -1.193 -17.138 -42.805  1.00  0.00     0.041 A 
ATOM     14  C   UNL     1      -1.194 -20.776 -41.995  1.00  0.00    -0.070 C 
ATOM     15  C   UNL     1      -1.646 -19.468 -42.438  1.00  0.00     0.026 A 
ATOM     16  C   UNL     1      -2.928 -19.344 -42.892  1.00  0.00     0.017 A 
ATOM     17  C   UNL     1      -0.773 -18.381 -42.388  1.00  0.00     0.043 A 
ATOM     18  C   UNL     1      -3.373 -18.099 -43.316  1.00  0.00     0.003 A 
ATOM     19  C   UNL     1      -2.492 -17.044 -43.258  1.00  0.00     0.026 A 
ATOM     20  C   UNL     1      -0.814 -21.860 -41.625  1.00  0.00     0.010 C 
ENDBRANCH  11  13
ENDBRANCH   1  11
BRANCH   8  21
ATOM     21  O   UNL     1       4.596 -16.821 -42.139  1.00  0.00    -0.487 OA
BRANCH  21  22
ATOM     22  C   UNL     1       4.046 -17.913 -41.437  1.00  0.00     0.258 C 
BRANCH  22  23
ATOM     23  C   UNL     1       5.181 -18.787 -40.882  1.00  0.00     0.201 C 
BRANCH  23  24
ATOM     24  O   UNL     1       4.690 -20.090 -40.791  1.00  0.00    -0.381 OA
ATOM     25  C   UNL     1       3.740 -20.289 -41.769  1.00  0.00     0.195 C 
ENDBRANCH  23  24
ENDBRANCH  22  23
ENDBRANCH  21  22
ENDBRANCH   8  21
BRANCH   7  26
ATOM     26  O   UNL     1       5.877 -15.817 -44.261  1.00  0.00    -0.487 OA
BRANCH  26  27
ATOM     27  C   UNL     1       6.653 -16.322 -45.301  1.00  0.00     0.258 C 
BRANCH  27  28
ATOM     28  C   UNL     1       7.378 -17.604 -45.012  1.00  0.00     0.201 C 
BRANCH  28  29
ATOM     29  O   UNL     1       6.735 -18.702 -45.558  1.00  0.00    -0.381 OA
ATOM     30  C   UNL     1       5.901 -19.296 -44.636  1.00  0.00     0.195 C 
ENDBRANCH  28  29
ENDBRANCH  27  28
ENDBRANCH  26  27
ENDBRANCH   7  26
TORSDOF 10
ENDMDL
MODEL 17
REMARK VINA RESULT:    -6.590      2.893      5.838
REMARK INTER + INTRA:         -11.562
REMARK INTER:                 -10.352
REMARK INTRA:                  -1.211
REMARK UNBOUND:                -1.120
REMARK SMILES C#Cc1cccc(Nc2ncnc3cc(OCCOC)c(OCCOC)cc23)c1
REMARK SMILES IDX 9 1 10 2 11 3 12 4 13 5 14 6 15 7 21 8 27 9 28 10 8 11 7 13
REMARK SMILES IDX 2 14 3 15 4 16 29 17 5 18 6 19 1 20 22 21 23 22 24 23 25 24
REMARK SMILES IDX 26 25 16 26 17 27 18 28 19 29 20 30
REMARK H PARENT 8 12
ROOT
ATOM      1  C   UNL     1       1.035 -16.731 -42.243  1.00  0.00     0.141 A 
ATOM      2  N   UNL     1       0.024 -16.019 -42.758  1.00  0.00    -0.219 NA
ATOM      3  C   UNL     1       0.131 -15.064 -43.692  1.00  0.00     0.224 A 
ATOM      4  N   UNL     1       1.351 -14.772 -44.171  1.00  0.00    -0.236 NA
ATOM      5  C   UNL     1       2.418 -15.439 -43.708  1.00  0.00     0.080 A 
ATOM      6  C   UNL     1       3.665 -15.107 -44.228  1.00  0.00     0.079 A 
ATOM      7  C   UNL     1       4.830 -15.716 -43.834  1.00  0.00     0.163 A 
ATOM      8  C   UNL     1       4.675 -16.715 -42.852  1.00  0.00     0.162 A 
ATOM      9  C   UNL     1       3.444 -17.046 -42.336  1.00  0.00     0.064 A 
ATOM     10  C   UNL     1       2.299 -16.436 -42.732  1.00  0.00     0.047 A 
ENDROOT
BRANCH   1  11
ATOM     11  N   UNL     1       0.881 -17.736 -41.254  1.00  0.00    -0.340 N 
ATOM     12  H   UNL     1       1.281 -17.609 -40.293  1.00  0.00     0.168 HD
BRANCH  11  13
ATOM     13  C   UNL     1       0.197 -18.969 -41.459  1.00  0.00     0.041 A 
ATOM     14  C   UNL     1      -3.221 -20.418 -41.796  1.00  0.00    -0.070 C 
ATOM     15  C   UNL     1      -1.772 -20.317 -41.735  1.00  0.00     0.026 A 
ATOM     16  C   UNL     1      -1.035 -21.455 -41.897  1.00  0.00     0.017 A 
ATOM     17  C   UNL     1      -1.174 -19.075 -41.517  1.00  0.00     0.043 A 
ATOM     18  C   UNL     1       0.350 -21.371 -41.843  1.00  0.00     0.003 A 
ATOM     19  C   UNL     1       0.915 -20.136 -41.626  1.00  0.00     0.026 A 
ATOM     20  C   UNL     1      -4.424 -20.497 -41.846  1.00  0.00     0.010 C 
ENDBRANCH  11  13
ENDBRANCH   1  11
BRANCH   8  21
ATOM     21  O   UNL     1       5.808 -17.379 -42.404  1.00  0.00    -0.487 OA
BRANCH  21  22
ATOM     22  C   UNL     1       5.909 -18.773 -42.583  1.00  0.00     0.258 C 
BRANCH  22  23
ATOM     23  C   UNL     1       5.955 -19.462 -41.211  1.00  0.00     0.201 C 
BRANCH  23  24
ATOM     24  O   UNL     1       4.891 -20.364 -41.167  1.00  0.00    -0.381 OA
ATOM     25  C   UNL     1       4.560 -20.742 -42.451  1.00  0.00     0.195 C 
ENDBRANCH  23  24
ENDBRANCH  22  23
ENDBRANCH  21  22
ENDBRANCH   8  21
BRANCH   7  26
ATOM     26  O   UNL     1       6.082 -15.474 -44.262  1.00  0.00    -0.487 OA
BRANCH  26  27
ATOM     27  C   UNL     1       6.559 -15.657 -45.557  1.00  0.00     0.258 C 
BRANCH  27  28
ATOM     28  C   UNL     1       8.052 -15.648 -45.710  1.00  0.00     0.201 C 
BRANCH  28  29
ATOM     29  O   UNL     1       8.519 -14.438 -46.199  1.00  0.00    -0.381 OA
ATOM     30  C   UNL     1       8.649 -13.514 -45.186  1.00  0.00     0.195 C 
ENDBRANCH  28  29
ENDBRANCH  27  28
ENDBRANCH  26  27
ENDBRANCH   7  26
TORSDOF 10
ENDMDL
MODEL 18
REMARK VINA RESULT:    -6.531      2.810      5.961
REMARK INTER + INTRA:         -11.470
REMARK INTER:                 -10.364
REMARK INTRA:                  -1.106
REMARK UNBOUND:                -1.120
REMARK SMILES C#Cc1cccc(Nc2ncnc3cc(OCCOC)c(OCCOC)cc23)c1
REMARK SMILES IDX 9 1 10 2 11 3 12 4 13 5 14 6 15 7 21 8 27 9 28 10 8 11 7 13
REMARK SMILES IDX 2 14 3 15 4 16 29 17 5 18 6 19 1 20 22 21 23 22 24 23 25 24
REMARK SMILES IDX 26 25 16 26 17 27 18 28 19 29 20 30
REMARK H PARENT 8 12
ROOT
ATOM      1  C   UNL     1      -0.012 -18.318 -41.868  1.00  0.00     0.141 A 
ATOM      2  N   UNL     1      -0.891 -19.328 -41.932  1.00  0.00    -0.219 NA
ATOM      3  C   UNL     1      -0.608 -20.626 -41.759  1.00  0.00     0.224 A 
ATOM      4  N   UNL     1       0.663 -20.976 -41.500  1.00  0.00    -0.236 NA
ATOM      5  C   UNL     1       1.605 -20.025 -41.420  1.00  0.00     0.080 A 
ATOM      6  C   UNL     1       2.909 -20.426 -41.150  1.00  0.00     0.079 A 
ATOM      7  C   UNL     1       3.958 -19.549 -41.045  1.00  0.00     0.163 A 
ATOM      8  C   UNL     1       3.621 -18.193 -41.231  1.00  0.00     0.162 A 
ATOM      9  C   UNL     1       2.332 -17.793 -41.498  1.00  0.00     0.064 A 
ATOM     10  C   UNL     1       1.302 -18.669 -41.600  1.00  0.00     0.047 A 
ENDROOT
BRANCH   1  11
ATOM     11  N   UNL     1      -0.351 -16.954 -42.056  1.00  0.00    -0.340 N 
ATOM     12  H   UNL     1      -0.738 -16.382 -41.267  1.00  0.00     0.168 HD
BRANCH  11  13
ATOM     13  C   UNL     1      -0.207 -16.252 -43.289  1.00  0.00     0.041 A 
ATOM     14  C   UNL     1       1.356 -13.213 -44.779  1.00  0.00    -0.070 C 
ATOM     15  C   UNL     1       0.607 -14.453 -44.657  1.00  0.00     0.026 A 
ATOM     16  C   UNL     1       0.028 -14.974 -45.778  1.00  0.00     0.017 A 
ATOM     17  C   UNL     1       0.499 -15.076 -43.413  1.00  0.00     0.043 A 
ATOM     18  C   UNL     1      -0.688 -16.159 -45.676  1.00  0.00     0.003 A 
ATOM     19  C   UNL     1      -0.780 -16.753 -44.438  1.00  0.00     0.026 A 
ATOM     20  C   UNL     1       1.979 -12.184 -44.874  1.00  0.00     0.010 C 
ENDBRANCH  11  13
ENDBRANCH   1  11
BRANCH   8  21
ATOM     21  O   UNL     1       4.629 -17.244 -41.138  1.00  0.00    -0.487 OA
BRANCH  21  22
ATOM     22  C   UNL     1       4.854 -16.367 -42.218  1.00  0.00     0.258 C 
BRANCH  22  23
ATOM     23  C   UNL     1       6.263 -15.766 -42.102  1.00  0.00     0.201 C 
BRANCH  23  24
ATOM     24  O   UNL     1       7.077 -16.448 -43.007  1.00  0.00    -0.381 OA
ATOM     25  C   UNL     1       6.365 -16.705 -44.158  1.00  0.00     0.195 C 
ENDBRANCH  23  24
ENDBRANCH  22  23
ENDBRANCH  21  22
ENDBRANCH   8  21
BRANCH   7  26
ATOM     26  O   UNL     1       5.251 -19.823 -40.794  1.00  0.00    -0.487 OA
BRANCH  26  27
ATOM     27  C   UNL     1       6.316 -19.652 -41.675  1.00  0.00     0.258 C 
BRANCH  27  28
ATOM     28  C   UNL     1       6.309 -20.535 -42.888  1.00  0.00     0.201 C 
BRANCH  28  29
ATOM     29  O   UNL     1       6.217 -21.877 -42.555  1.00  0.00    -0.381 OA
ATOM     30  C   UNL     1       7.114 -22.629 -43.280  1.00  0.00     0.195 C 
ENDBRANCH  28  29
ENDBRANCH  27  28
ENDBRANCH  26  27
ENDBRANCH   7  26
TORSDOF 10
ENDMDL
MODEL 19
REMARK VINA RESULT:    -6.520      2.874      6.437
REMARK INTER + INTRA:         -11.451
REMARK INTER:                 -10.179
REMARK INTRA:                  -1.273
REMARK UNBOUND:                -1.120
REMARK SMILES C#Cc1cccc(Nc2ncnc3cc(OCCOC)c(OCCOC)cc23)c1
REMARK SMILES IDX 9 1 10 2 11 3 12 4 13 5 14 6 15 7 21 8 27 9 28 10 8 11 7 13
REMARK SMILES IDX 2 14 3 15 4 16 29 17 5 18 6 19 1 20 22 21 23 22 24 23 25 24
REMARK SMILES IDX 26 25 16 26 17 27 18 28 19 29 20 30
REMARK H PARENT 8 12
ROOT
ATOM      1  C   UNL     1       1.756 -17.859 -41.087  1.00  0.00     0.141 A 
ATOM      2  N   UNL     1       1.160 -18.883 -40.462  1.00  0.00    -0.219 NA
ATOM      3  C   UNL     1       1.753 -20.020 -40.074  1.00  0.00     0.224 A 
ATOM      4  N   UNL     1       3.064 -20.174 -40.323  1.00  0.00    -0.236 NA
ATOM      5  C   UNL     1       3.737 -19.196 -40.946  1.00  0.00     0.080 A 
ATOM      6  C   UNL     1       5.092 -19.393 -41.187  1.00  0.00     0.079 A 
ATOM      7  C   UNL     1       5.886 -18.468 -41.816  1.00  0.00     0.163 A 
ATOM      8  C   UNL     1       5.226 -17.287 -42.208  1.00  0.00     0.162 A 
ATOM      9  C   UNL     1       3.885 -17.088 -41.971  1.00  0.00     0.064 A 
ATOM     10  C   UNL     1       3.110 -18.010 -41.349  1.00  0.00     0.047 A 
ENDROOT
BRANCH   1  11
ATOM     11  N   UNL     1       1.092 -16.670 -41.483  1.00  0.00    -0.340 N 
ATOM     12  H   UNL     1       1.101 -15.820 -40.870  1.00  0.00     0.168 HD
BRANCH  11  13
ATOM     13  C   UNL     1       0.373 -16.518 -42.704  1.00  0.00     0.041 A 
ATOM     14  C   UNL     1       0.432 -14.676 -45.944  1.00  0.00    -0.070 C 
ATOM     15  C   UNL     1       0.013 -15.579 -44.886  1.00  0.00     0.026 A 
ATOM     16  C   UNL     1      -1.114 -16.326 -45.079  1.00  0.00     0.017 A 
ATOM     17  C   UNL     1       0.762 -15.664 -43.712  1.00  0.00     0.043 A 
ATOM     18  C   UNL     1      -1.524 -17.195 -44.076  1.00  0.00     0.003 A 
ATOM     19  C   UNL     1      -0.769 -17.259 -42.928  1.00  0.00     0.026 A 
ATOM     20  C   UNL     1       0.785 -13.925 -46.820  1.00  0.00     0.010 C 
ENDBRANCH  11  13
ENDBRANCH   1  11
BRANCH   8  21
ATOM     21  O   UNL     1       5.963 -16.301 -42.849  1.00  0.00    -0.487 OA
BRANCH  21  22
ATOM     22  C   UNL     1       5.685 -14.946 -42.581  1.00  0.00     0.258 C 
BRANCH  22  23
ATOM     23  C   UNL     1       6.936 -14.275 -41.994  1.00  0.00     0.201 C 
BRANCH  23  24
ATOM     24  O   UNL     1       6.645 -12.918 -41.846  1.00  0.00    -0.381 OA
ATOM     25  C   UNL     1       7.288 -12.432 -40.728  1.00  0.00     0.195 C 
ENDBRANCH  23  24
ENDBRANCH  22  23
ENDBRANCH  21  22
ENDBRANCH   8  21
BRANCH   7  26
ATOM     26  O   UNL     1       7.197 -18.554 -42.104  1.00  0.00    -0.487 OA
BRANCH  26  27
ATOM     27  C   UNL     1       7.787 -19.436 -43.004  1.00  0.00     0.258 C 
BRANCH  27  28
ATOM     28  C   UNL     1       8.395 -20.671 -42.407  1.00  0.00     0.201 C 
BRANCH  28  29
ATOM     29  O   UNL     1       7.520 -21.745 -42.425  1.00  0.00    -0.381 OA
ATOM     30  C   UNL     1       6.769 -21.751 -43.579  1.00  0.00     0.195 C 
ENDBRANCH  28  29
ENDBRANCH  27  28
ENDBRANCH  26  27
ENDBRANCH   7  26
TORSDOF 10
ENDMDL
MODEL 20
REMARK VINA RESULT:    -6.518      5.822      9.378
REMARK INTER + INTRA:         -11.449
REMARK INTER:                 -10.611
REMARK INTRA:                  -0.838
REMARK UNBOUND:                -1.120
REMARK SMILES C#Cc1cccc(Nc2ncnc3cc(OCCOC)c(OCCOC)cc23)c1
REMARK SMILES IDX 9 1 10 2 11 3 12 4 13 5 14 6 15 7 21 8 27 9 28 10 8 11 7 13
REMARK SMILES IDX 2 14 3 15 4 16 29 17 5 18 6 19 1 20 22 21 23 22 24 23 25 24
REMARK SMILES IDX 26 25 16 26 17 27 18 28 19 29 20 30
REMARK H PARENT 8 12
ROOT
ATOM      1  C   UNL     1       0.027 -10.253 -43.903  1.00  0.00     0.141 A 
ATOM      2  N   UNL     1       0.654  -9.097 -44.160  1.00  0.00    -0.219 NA
ATOM      3  C   UNL     1       1.817  -8.963 -44.813  1.00  0.00     0.224 A 
ATOM      4  N   UNL     1       2.431 -10.071 -45.259  1.00  0.00    -0.236 NA
ATOM      5  C   UNL     1       1.870 -11.269 -45.043  1.00  0.00     0.080 A 
ATOM      6  C   UNL     1       2.537 -12.392 -45.520  1.00  0.00     0.079 A 
ATOM      7  C   UNL     1       2.065 -13.670 -45.360  1.00  0.00     0.163 A 
ATOM      8  C   UNL     1       0.840 -13.770 -44.670  1.00  0.00     0.162 A 
ATOM      9  C   UNL     1       0.178 -12.661 -44.198  1.00  0.00     0.064 A 
ATOM     10  C   UNL     1       0.654 -11.402 -44.361  1.00  0.00     0.047 A 
ENDROOT
BRANCH   1  11
ATOM     11  N   UNL     1      -1.205 -10.354 -43.208  1.00  0.00    -0.340 N 
ATOM     12  H   UNL     1      -1.332 -11.056 -42.440  1.00  0.00     0.168 HD
BRANCH  11  13
ATOM     13  C   UNL     1      -2.349  -9.546 -43.474  1.00  0.00     0.041 A 
ATOM     14  C   UNL     1      -3.384  -6.012 -44.052  1.00  0.00    -0.070 C 
ATOM     15  C   UNL     1      -3.453  -7.455 -43.895  1.00  0.00     0.026 A 
ATOM     16  C   UNL     1      -4.669  -8.064 -44.024  1.00  0.00     0.017 A 
ATOM     17  C   UNL     1      -2.292  -8.178 -43.622  1.00  0.00     0.043 A 
ATOM     18  C   UNL     1      -4.749  -9.442 -43.879  1.00  0.00     0.003 A 
ATOM     19  C   UNL     1      -3.590 -10.131 -43.609  1.00  0.00     0.026 A 
ATOM     20  C   UNL     1      -3.320  -4.814 -44.182  1.00  0.00     0.010 C 
ENDBRANCH  11  13
ENDBRANCH   1  11
BRANCH   8  21
ATOM     21  O   UNL     1       0.297 -15.031 -44.471  1.00  0.00    -0.487 OA
BRANCH  21  22
ATOM     22  C   UNL     1       0.085 -15.492 -43.156  1.00  0.00     0.258 C 
BRANCH  22  23
ATOM     23  C   UNL     1      -0.819 -16.734 -43.190  1.00  0.00     0.201 C 
BRANCH  23  24
ATOM     24  O   UNL     1      -1.988 -16.373 -43.862  1.00  0.00    -0.381 OA
ATOM     25  C   UNL     1      -3.038 -17.130 -43.389  1.00  0.00     0.195 C 
ENDBRANCH  23  24
ENDBRANCH  22  23
ENDBRANCH  21  22
ENDBRANCH   8  21
BRANCH   7  26
ATOM     26  O   UNL     1       2.624 -14.822 -45.772  1.00  0.00    -0.487 OA
BRANCH  26  27
ATOM     27  C   UNL     1       3.782 -15.405 -45.263  1.00  0.00     0.258 C 
BRANCH  27  28
ATOM     28  C   UNL     1       4.814 -15.802 -46.277  1.00  0.00     0.201 C 
BRANCH  28  29
ATOM     29  O   UNL     1       5.770 -14.816 -46.462  1.00  0.00    -0.381 OA
ATOM     30  C   UNL     1       6.158 -14.271 -45.258  1.00  0.00     0.195 C 
ENDBRANCH  28  29
ENDBRANCH  27  28
ENDBRANCH  26  27
ENDBRANCH   7  26
TORSDOF 10
ENDMDL
