MODEL 1
REMARK VINA RESULT:    -9.374      0.000      0.000
REMARK INTER + INTRA:         -17.026
REMARK INTER:                 -15.951
REMARK INTRA:                  -1.075
REMARK UNBOUND:                -1.075
REMARK SMILES COc1cc2c(Oc3ccc(NC(=O)C4(C(=O)Nc5ccc(F)cc5)CC4)cc3F)ccnc2cc1OCCCN1CCOCC1
REMARK SMILES IDX 7 1 6 2 3 3 4 4 36 5 5 6 35 7 34 8 31 9 33 10 32 11 2 12
REMARK SMILES IDX 1 13 37 14 38 15 39 16 40 17 41 18 42 19 46 20 43 21 45 22
REMARK SMILES IDX 44 23 8 24 9 25 29 26 10 27 28 28 11 29 30 30 12 31 13 32
REMARK SMILES IDX 14 33 15 35 26 36 27 37 16 38 17 39 18 40 19 42 20 43 25 44
REMARK SMILES IDX 21 45 24 46 22 47 23 48
REMARK H PARENT 12 34 18 41
ROOT
ATOM      1  O   UNL     1       5.889 -12.798 -45.656  1.00  0.00    -0.454 OA
ENDROOT
BRANCH   1   2
ATOM      2  C   UNL     1       5.469 -11.524 -45.340  1.00  0.00     0.138 A 
ATOM      3  C   UNL     1       1.722 -11.732 -45.541  1.00  0.00     0.161 A 
ATOM      4  C   UNL     1       3.063 -12.116 -45.599  1.00  0.00     0.064 A 
ATOM      5  C   UNL     1       1.402 -10.411 -45.186  1.00  0.00     0.163 A 
ATOM      6  C   UNL     1       4.097 -11.198 -45.307  1.00  0.00     0.047 A 
ATOM      7  C   UNL     1       2.432  -9.510 -44.897  1.00  0.00     0.079 A 
ATOM      8  C   UNL     1       3.770  -9.880 -44.943  1.00  0.00     0.078 A 
ATOM      9  C   UNL     1       6.434 -10.600 -44.955  1.00  0.00     0.068 A 
ATOM     10  N   UNL     1       4.703  -8.966 -44.621  1.00  0.00    -0.256 NA
ATOM     11  C   UNL     1       6.001  -9.339 -44.618  1.00  0.00     0.115 A 
BRANCH   3  12
ATOM     12  O   UNL     1       0.663 -12.563 -45.808  1.00  0.00    -0.493 OA
ATOM     13  C   UNL     1       0.457 -12.961 -47.156  1.00  0.00     0.278 C 
ENDBRANCH   3  12
BRANCH   5  14
ATOM     14  O   UNL     1       0.065 -10.116 -45.143  1.00  0.00    -0.490 OA
BRANCH  14  15
ATOM     15  C   UNL     1      -0.410  -8.873 -45.650  1.00  0.00     0.231 C 
BRANCH  15  16
ATOM     16  C   UNL     1      -1.928  -8.876 -45.848  1.00  0.00     0.057 C 
BRANCH  16  17
ATOM     17  C   UNL     1      -2.641  -8.055 -44.762  1.00  0.00     0.088 C 
BRANCH  17  18
ATOM     18  N   UNL     1      -3.877  -8.621 -44.209  1.00  0.00    -0.299 NA
ATOM     19  C   UNL     1      -3.767 -10.041 -43.834  1.00  0.00     0.113 C 
ATOM     20  C   UNL     1      -4.426  -7.854 -43.077  1.00  0.00     0.113 C 
ATOM     21  C   UNL     1      -5.125 -10.584 -43.362  1.00  0.00     0.175 C 
ATOM     22  C   UNL     1      -5.769  -8.446 -42.621  1.00  0.00     0.175 C 
ATOM     23  O   UNL     1      -5.631  -9.826 -42.253  1.00  0.00    -0.379 OA
ENDBRANCH  17  18
ENDBRANCH  16  17
ENDBRANCH  15  16
ENDBRANCH  14  15
ENDBRANCH   5  14
ENDBRANCH   1   2
BRANCH   1  24
ATOM     24  C   UNL     1       5.656 -13.784 -44.723  1.00  0.00     0.163 A 
ATOM     25  C   UNL     1       5.974 -13.678 -43.370  1.00  0.00     0.052 A 
ATOM     26  C   UNL     1       4.996 -14.927 -45.172  1.00  0.00     0.167 A 
ATOM     27  C   UNL     1       5.639 -14.714 -42.486  1.00  0.00     0.030 A 
ATOM     28  C   UNL     1       4.667 -15.962 -44.299  1.00  0.00     0.069 A 
ATOM     29  C   UNL     1       4.981 -15.859 -42.942  1.00  0.00     0.044 A 
ATOM     30  F   UNL     1       4.680 -15.057 -46.469  1.00  0.00    -0.203 F 
BRANCH  29  31
ATOM     31  N   UNL     1       4.605 -16.932 -42.112  1.00  0.00    -0.325 N 
ATOM     32  C   UNL     1       3.326 -17.372 -41.839  1.00  0.00     0.240 C 
ATOM     33  O   UNL     1       2.269 -16.944 -42.278  1.00  0.00    -0.273 OA
ATOM     34  H   UNL     1       5.357 -17.478 -41.705  1.00  0.00     0.169 HD
BRANCH  32  35
ATOM     35  C   UNL     1       3.296 -18.554 -40.919  1.00  0.00     0.128 C 
ATOM     36  C   UNL     1       4.404 -18.684 -39.872  1.00  0.00     0.028 C 
ATOM     37  C   UNL     1       4.414 -19.589 -41.063  1.00  0.00     0.028 C 
BRANCH  35  38
ATOM     38  C   UNL     1       1.929 -19.038 -40.542  1.00  0.00     0.240 C 
ATOM     39  O   UNL     1       1.573 -18.943 -39.375  1.00  0.00    -0.274 OA
ATOM     40  N   UNL     1       1.227 -19.562 -41.607  1.00  0.00    -0.325 N 
ATOM     41  H   UNL     1       1.717 -19.582 -42.496  1.00  0.00     0.169 HD
BRANCH  40  42
ATOM     42  C   UNL     1      -0.064 -20.122 -41.594  1.00  0.00     0.041 A 
ATOM     43  C   UNL     1      -0.323 -21.478 -41.364  1.00  0.00     0.029 A 
ATOM     44  C   UNL     1      -1.140 -19.255 -41.824  1.00  0.00     0.029 A 
ATOM     45  C   UNL     1      -1.635 -21.958 -41.376  1.00  0.00     0.041 A 
ATOM     46  C   UNL     1      -2.452 -19.736 -41.833  1.00  0.00     0.041 A 
ATOM     47  C   UNL     1      -2.687 -21.085 -41.611  1.00  0.00     0.123 A 
ATOM     48  F   UNL     1      -3.944 -21.549 -41.631  1.00  0.00    -0.207 F 
ENDBRANCH  40  42
ENDBRANCH  35  38
ENDBRANCH  32  35
ENDBRANCH  29  31
ENDBRANCH   1  24
TORSDOF 12
ENDMDL
MODEL 2
REMARK VINA RESULT:    -9.157      4.133      8.901
REMARK INTER + INTRA:         -16.655
REMARK INTER:                 -14.892
REMARK INTRA:                  -1.764
REMARK UNBOUND:                -1.075
REMARK SMILES COc1cc2c(Oc3ccc(NC(=O)C4(C(=O)Nc5ccc(F)cc5)CC4)cc3F)ccnc2cc1OCCCN1CCOCC1
REMARK SMILES IDX 7 1 6 2 3 3 4 4 36 5 5 6 35 7 34 8 31 9 33 10 32 11 2 12
REMARK SMILES IDX 1 13 37 14 38 15 39 16 40 17 41 18 42 19 46 20 43 21 45 22
REMARK SMILES IDX 44 23 8 24 9 25 29 26 10 27 28 28 11 29 30 30 12 31 13 32
REMARK SMILES IDX 14 33 15 35 26 36 27 37 16 38 17 39 18 40 19 42 20 43 25 44
REMARK SMILES IDX 21 45 24 46 22 47 23 48
REMARK H PARENT 12 34 18 41
ROOT
ATOM      1  O   UNL     1       1.056 -19.769 -40.241  1.00  0.00    -0.454 OA
ENDROOT
BRANCH   1   2
ATOM      2  C   UNL     1      -0.022 -19.679 -41.094  1.00  0.00     0.138 A 
ATOM      3  C   UNL     1       0.531 -16.438 -42.913  1.00  0.00     0.161 A 
ATOM      4  C   UNL     1       0.733 -17.495 -42.025  1.00  0.00     0.064 A 
ATOM      5  C   UNL     1      -0.593 -16.456 -43.756  1.00  0.00     0.163 A 
ATOM      6  C   UNL     1      -0.173 -18.578 -41.962  1.00  0.00     0.047 A 
ATOM      7  C   UNL     1      -1.484 -17.532 -43.687  1.00  0.00     0.079 A 
ATOM      8  C   UNL     1      -1.291 -18.595 -42.814  1.00  0.00     0.078 A 
ATOM      9  C   UNL     1      -0.900 -20.755 -41.143  1.00  0.00     0.068 A 
ATOM     10  N   UNL     1      -2.174 -19.610 -42.829  1.00  0.00    -0.256 NA
ATOM     11  C   UNL     1      -1.960 -20.666 -42.015  1.00  0.00     0.115 A 
BRANCH   3  12
ATOM     12  O   UNL     1       1.364 -15.354 -43.034  1.00  0.00    -0.493 OA
ATOM     13  C   UNL     1       2.648 -15.567 -43.603  1.00  0.00     0.278 C 
ENDBRANCH   3  12
BRANCH   5  14
ATOM     14  O   UNL     1      -0.716 -15.387 -44.604  1.00  0.00    -0.490 OA
BRANCH  14  15
ATOM     15  C   UNL     1      -0.422 -15.535 -45.989  1.00  0.00     0.231 C 
BRANCH  15  16
ATOM     16  C   UNL     1       0.456 -14.397 -46.515  1.00  0.00     0.057 C 
BRANCH  16  17
ATOM     17  C   UNL     1       0.410 -13.173 -45.587  1.00  0.00     0.088 C 
BRANCH  17  18
ATOM     18  N   UNL     1      -0.753 -12.288 -45.713  1.00  0.00    -0.299 NA
ATOM     19  C   UNL     1      -0.703 -11.109 -44.832  1.00  0.00     0.113 C 
ATOM     20  C   UNL     1      -1.023 -11.858 -47.096  1.00  0.00     0.113 C 
ATOM     21  C   UNL     1      -1.999 -10.290 -44.948  1.00  0.00     0.175 C 
ATOM     22  C   UNL     1      -2.310 -11.021 -47.162  1.00  0.00     0.175 C 
ATOM     23  O   UNL     1      -2.232  -9.875 -46.303  1.00  0.00    -0.379 OA
ENDBRANCH  17  18
ENDBRANCH  16  17
ENDBRANCH  15  16
ENDBRANCH  14  15
ENDBRANCH   5  14
ENDBRANCH   1   2
BRANCH   1  24
ATOM     24  C   UNL     1       2.297 -19.935 -40.816  1.00  0.00     0.163 A 
ATOM     25  C   UNL     1       2.575 -20.837 -41.841  1.00  0.00     0.052 A 
ATOM     26  C   UNL     1       3.311 -19.086 -40.373  1.00  0.00     0.167 A 
ATOM     27  C   UNL     1       3.858 -20.887 -42.405  1.00  0.00     0.030 A 
ATOM     28  C   UNL     1       4.588 -19.136 -40.924  1.00  0.00     0.069 A 
ATOM     29  C   UNL     1       4.871 -20.036 -41.955  1.00  0.00     0.044 A 
ATOM     30  F   UNL     1       3.072 -18.210 -39.385  1.00  0.00    -0.203 F 
BRANCH  29  31
ATOM     31  N   UNL     1       6.177 -20.024 -42.479  1.00  0.00    -0.325 N 
ATOM     32  C   UNL     1       6.609 -19.415 -43.639  1.00  0.00     0.240 C 
ATOM     33  O   UNL     1       5.960 -18.744 -44.427  1.00  0.00    -0.273 OA
ATOM     34  H   UNL     1       6.897 -20.470 -41.919  1.00  0.00     0.169 HD
BRANCH  32  35
ATOM     35  C   UNL     1       8.076 -19.595 -43.886  1.00  0.00     0.128 C 
ATOM     36  C   UNL     1       8.563 -19.652 -45.334  1.00  0.00     0.028 C 
ATOM     37  C   UNL     1       8.527 -20.909 -44.526  1.00  0.00     0.028 C 
BRANCH  35  38
ATOM     38  C   UNL     1       8.979 -18.952 -42.878  1.00  0.00     0.240 C 
ATOM     39  O   UNL     1       8.949 -19.352 -41.722  1.00  0.00    -0.274 OA
ATOM     40  N   UNL     1       9.748 -17.938 -43.409  1.00  0.00    -0.325 N 
ATOM     41  H   UNL     1       9.598 -17.733 -44.392  1.00  0.00     0.169 HD
BRANCH  40  42
ATOM     42  C   UNL     1      10.674 -17.118 -42.736  1.00  0.00     0.041 A 
ATOM     43  C   UNL     1      11.990 -17.498 -42.453  1.00  0.00     0.029 A 
ATOM     44  C   UNL     1      10.232 -15.851 -42.335  1.00  0.00     0.029 A 
ATOM     45  C   UNL     1      12.846 -16.628 -41.771  1.00  0.00     0.041 A 
ATOM     46  C   UNL     1      11.088 -14.981 -41.656  1.00  0.00     0.041 A 
ATOM     47  C   UNL     1      12.388 -15.379 -41.377  1.00  0.00     0.123 A 
ATOM     48  F   UNL     1      13.206 -14.550 -40.716  1.00  0.00    -0.207 F 
ENDBRANCH  40  42
ENDBRANCH  35  38
ENDBRANCH  32  35
ENDBRANCH  29  31
ENDBRANCH   1  24
TORSDOF 12
ENDMDL
MODEL 3
REMARK VINA RESULT:    -9.155      2.184      3.509
REMARK INTER + INTRA:         -16.652
REMARK INTER:                 -16.174
REMARK INTRA:                  -0.478
REMARK UNBOUND:                -1.075
REMARK SMILES COc1cc2c(Oc3ccc(NC(=O)C4(C(=O)Nc5ccc(F)cc5)CC4)cc3F)ccnc2cc1OCCCN1CCOCC1
REMARK SMILES IDX 7 1 6 2 3 3 4 4 36 5 5 6 35 7 34 8 31 9 33 10 32 11 2 12
REMARK SMILES IDX 1 13 37 14 38 15 39 16 40 17 41 18 42 19 46 20 43 21 45 22
REMARK SMILES IDX 44 23 8 24 9 25 29 26 10 27 28 28 11 29 30 30 12 31 13 32
REMARK SMILES IDX 14 33 15 35 26 36 27 37 16 38 17 39 18 40 19 42 20 43 25 44
REMARK SMILES IDX 21 45 24 46 22 47 23 48
REMARK H PARENT 12 34 18 41
ROOT
ATOM      1  O   UNL     1       1.892 -12.476 -45.965  1.00  0.00    -0.454 OA
ENDROOT
BRANCH   1   2
ATOM      2  C   UNL     1       0.689 -11.837 -46.171  1.00  0.00     0.138 A 
ATOM      3  C   UNL     1       1.203  -8.429 -44.673  1.00  0.00     0.161 A 
ATOM      4  C   UNL     1       1.464  -9.743 -45.068  1.00  0.00     0.064 A 
ATOM      5  C   UNL     1      -0.053  -7.866 -44.954  1.00  0.00     0.163 A 
ATOM      6  C   UNL     1       0.486 -10.510 -45.740  1.00  0.00     0.047 A 
ATOM      7  C   UNL     1      -1.014  -8.632 -45.621  1.00  0.00     0.079 A 
ATOM      8  C   UNL     1      -0.766  -9.938 -46.027  1.00  0.00     0.078 A 
ATOM      9  C   UNL     1      -0.282 -12.507 -46.907  1.00  0.00     0.068 A 
ATOM     10  N   UNL     1      -1.729 -10.600 -46.693  1.00  0.00    -0.256 NA
ATOM     11  C   UNL     1      -1.471 -11.852 -47.129  1.00  0.00     0.115 A 
BRANCH   3  12
ATOM     12  O   UNL     1       2.099  -7.622 -44.019  1.00  0.00    -0.493 OA
ATOM     13  C   UNL     1       3.415  -8.118 -43.821  1.00  0.00     0.278 C 
ENDBRANCH   3  12
BRANCH   5  14
ATOM     14  O   UNL     1      -0.227  -6.571 -44.542  1.00  0.00    -0.490 OA
BRANCH  14  15
ATOM     15  C   UNL     1      -0.967  -5.658 -45.347  1.00  0.00     0.231 C 
BRANCH  15  16
ATOM     16  C   UNL     1      -2.018  -4.899 -44.534  1.00  0.00     0.057 C 
BRANCH  16  17
ATOM     17  C   UNL     1      -3.421  -5.048 -45.143  1.00  0.00     0.088 C 
BRANCH  17  18
ATOM     18  N   UNL     1      -4.327  -6.002 -44.495  1.00  0.00    -0.299 NA
ATOM     19  C   UNL     1      -4.952  -6.958 -45.427  1.00  0.00     0.113 C 
ATOM     20  C   UNL     1      -3.713  -6.737 -43.375  1.00  0.00     0.113 C 
ATOM     21  C   UNL     1      -5.961  -7.852 -44.689  1.00  0.00     0.175 C 
ATOM     22  C   UNL     1      -4.749  -7.639 -42.685  1.00  0.00     0.175 C 
ATOM     23  O   UNL     1      -5.334  -8.564 -43.612  1.00  0.00    -0.379 OA
ENDBRANCH  17  18
ENDBRANCH  16  17
ENDBRANCH  15  16
ENDBRANCH  14  15
ENDBRANCH   5  14
ENDBRANCH   1   2
BRANCH   1  24
ATOM     24  C   UNL     1       1.918 -13.468 -45.008  1.00  0.00     0.163 A 
ATOM     25  C   UNL     1       0.803 -13.901 -44.294  1.00  0.00     0.052 A 
ATOM     26  C   UNL     1       3.139 -14.111 -44.807  1.00  0.00     0.167 A 
ATOM     27  C   UNL     1       0.920 -14.962 -43.385  1.00  0.00     0.030 A 
ATOM     28  C   UNL     1       3.261 -15.160 -43.900  1.00  0.00     0.069 A 
ATOM     29  C   UNL     1       2.145 -15.601 -43.184  1.00  0.00     0.044 A 
ATOM     30  F   UNL     1       4.229 -13.713 -45.478  1.00  0.00    -0.203 F 
BRANCH  29  31
ATOM     31  N   UNL     1       2.335 -16.677 -42.296  1.00  0.00    -0.325 N 
ATOM     32  C   UNL     1       3.477 -17.431 -42.124  1.00  0.00     0.240 C 
ATOM     33  O   UNL     1       4.558 -17.302 -42.681  1.00  0.00    -0.273 OA
ATOM     34  H   UNL     1       1.562 -16.896 -41.675  1.00  0.00     0.169 HD
BRANCH  32  35
ATOM     35  C   UNL     1       3.328 -18.494 -41.080  1.00  0.00     0.128 C 
ATOM     36  C   UNL     1       4.386 -18.580 -39.979  1.00  0.00     0.028 C 
ATOM     37  C   UNL     1       4.370 -19.614 -41.059  1.00  0.00     0.028 C 
BRANCH  35  38
ATOM     38  C   UNL     1       1.916 -18.834 -40.709  1.00  0.00     0.240 C 
ATOM     39  O   UNL     1       1.495 -18.485 -39.615  1.00  0.00    -0.274 OA
ATOM     40  N   UNL     1       1.254 -19.540 -41.692  1.00  0.00    -0.325 N 
ATOM     41  H   UNL     1       1.795 -19.763 -42.521  1.00  0.00     0.169 HD
BRANCH  40  42
ATOM     42  C   UNL     1      -0.064 -20.033 -41.656  1.00  0.00     0.041 A 
ATOM     43  C   UNL     1      -1.200 -19.234 -41.815  1.00  0.00     0.029 A 
ATOM     44  C   UNL     1      -0.225 -21.410 -41.448  1.00  0.00     0.029 A 
ATOM     45  C   UNL     1      -2.477 -19.801 -41.756  1.00  0.00     0.041 A 
ATOM     46  C   UNL     1      -1.501 -21.976 -41.393  1.00  0.00     0.041 A 
ATOM     47  C   UNL     1      -2.617 -21.165 -41.545  1.00  0.00     0.123 A 
ATOM     48  F   UNL     1      -3.840 -21.706 -41.480  1.00  0.00    -0.207 F 
ENDBRANCH  40  42
ENDBRANCH  35  38
ENDBRANCH  32  35
ENDBRANCH  29  31
ENDBRANCH   1  24
TORSDOF 12
ENDMDL
MODEL 4
REMARK VINA RESULT:    -9.078      4.904     10.563
REMARK INTER + INTRA:         -16.522
REMARK INTER:                 -13.685
REMARK INTRA:                  -2.837
REMARK UNBOUND:                -1.075
REMARK SMILES COc1cc2c(Oc3ccc(NC(=O)C4(C(=O)Nc5ccc(F)cc5)CC4)cc3F)ccnc2cc1OCCCN1CCOCC1
REMARK SMILES IDX 7 1 6 2 3 3 4 4 36 5 5 6 35 7 34 8 31 9 33 10 32 11 2 12
REMARK SMILES IDX 1 13 37 14 38 15 39 16 40 17 41 18 42 19 46 20 43 21 45 22
REMARK SMILES IDX 44 23 8 24 9 25 29 26 10 27 28 28 11 29 30 30 12 31 13 32
REMARK SMILES IDX 14 33 15 35 26 36 27 37 16 38 17 39 18 40 19 42 20 43 25 44
REMARK SMILES IDX 21 45 24 46 22 47 23 48
REMARK H PARENT 12 34 18 41
ROOT
ATOM      1  O   UNL     1       8.152 -12.076 -44.304  1.00  0.00    -0.454 OA
ENDROOT
BRANCH   1   2
ATOM      2  C   UNL     1       8.533 -12.531 -43.061  1.00  0.00     0.138 A 
ATOM      3  C   UNL     1      11.662 -14.499 -43.739  1.00  0.00     0.161 A 
ATOM      4  C   UNL     1      10.527 -13.719 -43.966  1.00  0.00     0.064 A 
ATOM      5  C   UNL     1      11.972 -14.891 -42.426  1.00  0.00     0.163 A 
ATOM      6  C   UNL     1       9.689 -13.323 -42.900  1.00  0.00     0.047 A 
ATOM      7  C   UNL     1      11.138 -14.494 -41.377  1.00  0.00     0.079 A 
ATOM      8  C   UNL     1      10.009 -13.712 -41.587  1.00  0.00     0.078 A 
ATOM      9  C   UNL     1       7.800 -12.101 -41.961  1.00  0.00     0.068 A 
ATOM     10  N   UNL     1       9.273 -13.342 -40.523  1.00  0.00    -0.256 NA
ATOM     11  C   UNL     1       8.204 -12.542 -40.722  1.00  0.00     0.115 A 
BRANCH   3  12
ATOM     12  O   UNL     1      12.525 -14.921 -44.719  1.00  0.00    -0.493 OA
ATOM     13  C   UNL     1      12.000 -15.740 -45.754  1.00  0.00     0.278 C 
ENDBRANCH   3  12
BRANCH   5  14
ATOM     14  O   UNL     1      13.107 -15.647 -42.285  1.00  0.00    -0.490 OA
BRANCH  14  15
ATOM     15  C   UNL     1      13.021 -16.981 -41.795  1.00  0.00     0.231 C 
BRANCH  15  16
ATOM     16  C   UNL     1      12.507 -17.951 -42.861  1.00  0.00     0.057 C 
BRANCH  16  17
ATOM     17  C   UNL     1      11.086 -18.442 -42.541  1.00  0.00     0.088 C 
BRANCH  17  18
ATOM     18  N   UNL     1       9.977 -17.729 -43.185  1.00  0.00    -0.299 NA
ATOM     19  C   UNL     1       9.387 -18.452 -44.325  1.00  0.00     0.113 C 
ATOM     20  C   UNL     1       8.911 -17.326 -42.252  1.00  0.00     0.113 C 
ATOM     21  C   UNL     1       8.306 -17.598 -45.006  1.00  0.00     0.175 C 
ATOM     22  C   UNL     1       7.839 -16.498 -42.980  1.00  0.00     0.175 C 
ATOM     23  O   UNL     1       7.274 -17.228 -44.078  1.00  0.00    -0.379 OA
ENDBRANCH  17  18
ENDBRANCH  16  17
ENDBRANCH  15  16
ENDBRANCH  14  15
ENDBRANCH   5  14
ENDBRANCH   1   2
BRANCH   1  24
ATOM     24  C   UNL     1       6.951 -12.536 -44.798  1.00  0.00     0.163 A 
ATOM     25  C   UNL     1       6.692 -13.867 -45.124  1.00  0.00     0.052 A 
ATOM     26  C   UNL     1       5.920 -11.603 -44.909  1.00  0.00     0.167 A 
ATOM     27  C   UNL     1       5.415 -14.247 -45.561  1.00  0.00     0.030 A 
ATOM     28  C   UNL     1       4.653 -11.975 -45.350  1.00  0.00     0.069 A 
ATOM     29  C   UNL     1       4.387 -13.308 -45.673  1.00  0.00     0.044 A 
ATOM     30  F   UNL     1       6.142 -10.316 -44.606  1.00  0.00    -0.203 F 
BRANCH  29  31
ATOM     31  N   UNL     1       3.081 -13.619 -46.096  1.00  0.00    -0.325 N 
ATOM     32  C   UNL     1       2.183 -14.470 -45.486  1.00  0.00     0.240 C 
ATOM     33  O   UNL     1       2.325 -15.101 -44.449  1.00  0.00    -0.273 OA
ATOM     34  H   UNL     1       2.738 -13.126 -46.914  1.00  0.00     0.169 HD
BRANCH  32  35
ATOM     35  C   UNL     1       0.873 -14.556 -46.206  1.00  0.00     0.128 C 
ATOM     36  C   UNL     1      -0.144 -15.597 -45.736  1.00  0.00     0.028 C 
ATOM     37  C   UNL     1       0.595 -15.823 -47.017  1.00  0.00     0.028 C 
BRANCH  35  38
ATOM     38  C   UNL     1       0.340 -13.254 -46.723  1.00  0.00     0.240 C 
ATOM     39  O   UNL     1       0.536 -12.962 -47.895  1.00  0.00    -0.274 OA
ATOM     40  N   UNL     1      -0.320 -12.519 -45.760  1.00  0.00    -0.325 N 
ATOM     41  H   UNL     1      -0.344 -12.924 -44.830  1.00  0.00     0.169 HD
BRANCH  40  42
ATOM     42  C   UNL     1      -0.912 -11.250 -45.904  1.00  0.00     0.041 A 
ATOM     43  C   UNL     1      -2.070 -11.010 -46.651  1.00  0.00     0.029 A 
ATOM     44  C   UNL     1      -0.290 -10.177 -45.252  1.00  0.00     0.029 A 
ATOM     45  C   UNL     1      -2.591  -9.716 -46.752  1.00  0.00     0.041 A 
ATOM     46  C   UNL     1      -0.813  -8.885 -45.350  1.00  0.00     0.041 A 
ATOM     47  C   UNL     1      -1.958  -8.666 -46.103  1.00  0.00     0.123 A 
ATOM     48  F   UNL     1      -2.453  -7.426 -46.207  1.00  0.00    -0.207 F 
ENDBRANCH  40  42
ENDBRANCH  35  38
ENDBRANCH  32  35
ENDBRANCH  29  31
ENDBRANCH   1  24
TORSDOF 12
ENDMDL
MODEL 5
REMARK VINA RESULT:    -8.986      4.422      9.544
REMARK INTER + INTRA:         -16.365
REMARK INTER:                 -13.466
REMARK INTRA:                  -2.899
REMARK UNBOUND:                -1.075
REMARK SMILES COc1cc2c(Oc3ccc(NC(=O)C4(C(=O)Nc5ccc(F)cc5)CC4)cc3F)ccnc2cc1OCCCN1CCOCC1
REMARK SMILES IDX 7 1 6 2 3 3 4 4 36 5 5 6 35 7 34 8 31 9 33 10 32 11 2 12
REMARK SMILES IDX 1 13 37 14 38 15 39 16 40 17 41 18 42 19 46 20 43 21 45 22
REMARK SMILES IDX 44 23 8 24 9 25 29 26 10 27 28 28 11 29 30 30 12 31 13 32
REMARK SMILES IDX 14 33 15 35 26 36 27 37 16 38 17 39 18 40 19 42 20 43 25 44
REMARK SMILES IDX 21 45 24 46 22 47 23 48
REMARK H PARENT 12 34 18 41
ROOT
ATOM      1  O   UNL     1       8.224 -12.347 -44.379  1.00  0.00    -0.454 OA
ENDROOT
BRANCH   1   2
ATOM      2  C   UNL     1       8.637 -12.709 -43.116  1.00  0.00     0.138 A 
ATOM      3  C   UNL     1      11.697 -14.802 -43.730  1.00  0.00     0.161 A 
ATOM      4  C   UNL     1      10.572 -14.016 -43.984  1.00  0.00     0.064 A 
ATOM      5  C   UNL     1      12.043 -15.094 -42.401  1.00  0.00     0.163 A 
ATOM      6  C   UNL     1       9.780 -13.514 -42.927  1.00  0.00     0.047 A 
ATOM      7  C   UNL     1      11.254 -14.592 -41.361  1.00  0.00     0.079 A 
ATOM      8  C   UNL     1      10.136 -13.802 -41.598  1.00  0.00     0.078 A 
ATOM      9  C   UNL     1       7.952 -12.173 -42.032  1.00  0.00     0.068 A 
ATOM     10  N   UNL     1       9.445 -13.329 -40.545  1.00  0.00    -0.256 NA
ATOM     11  C   UNL     1       8.388 -12.521 -40.774  1.00  0.00     0.115 A 
BRANCH   3  12
ATOM     12  O   UNL     1      12.516 -15.323 -44.700  1.00  0.00    -0.493 OA
ATOM     13  C   UNL     1      11.907 -16.032 -45.769  1.00  0.00     0.278 C 
ENDBRANCH   3  12
BRANCH   5  14
ATOM     14  O   UNL     1      13.165 -15.863 -42.235  1.00  0.00    -0.490 OA
BRANCH  14  15
ATOM     15  C   UNL     1      13.057 -17.179 -41.701  1.00  0.00     0.231 C 
BRANCH  15  16
ATOM     16  C   UNL     1      12.819 -18.223 -42.795  1.00  0.00     0.057 C 
BRANCH  16  17
ATOM     17  C   UNL     1      11.427 -18.862 -42.672  1.00  0.00     0.088 C 
BRANCH  17  18
ATOM     18  N   UNL     1      10.300 -18.111 -43.236  1.00  0.00    -0.299 NA
ATOM     19  C   UNL     1       9.616 -18.803 -44.343  1.00  0.00     0.113 C 
ATOM     20  C   UNL     1       9.308 -17.687 -42.233  1.00  0.00     0.113 C 
ATOM     21  C   UNL     1       8.519 -17.911 -44.945  1.00  0.00     0.175 C 
ATOM     22  C   UNL     1       8.216 -16.821 -42.882  1.00  0.00     0.175 C 
ATOM     23  O   UNL     1       7.561 -17.522 -43.949  1.00  0.00    -0.379 OA
ENDBRANCH  17  18
ENDBRANCH  16  17
ENDBRANCH  15  16
ENDBRANCH  14  15
ENDBRANCH   5  14
ENDBRANCH   1   2
BRANCH   1  24
ATOM     24  C   UNL     1       6.990 -12.804 -44.790  1.00  0.00     0.163 A 
ATOM     25  C   UNL     1       6.674 -14.148 -44.982  1.00  0.00     0.052 A 
ATOM     26  C   UNL     1       5.990 -11.847 -44.953  1.00  0.00     0.167 A 
ATOM     27  C   UNL     1       5.370 -14.518 -45.341  1.00  0.00     0.030 A 
ATOM     28  C   UNL     1       4.695 -12.209 -45.316  1.00  0.00     0.069 A 
ATOM     29  C   UNL     1       4.372 -13.555 -45.506  1.00  0.00     0.044 A 
ATOM     30  F   UNL     1       6.267 -10.546 -44.778  1.00  0.00    -0.203 F 
BRANCH  29  31
ATOM     31  N   UNL     1       3.041 -13.853 -45.855  1.00  0.00    -0.325 N 
ATOM     32  C   UNL     1       2.034 -14.291 -45.021  1.00  0.00     0.240 C 
ATOM     33  O   UNL     1       2.081 -14.481 -43.815  1.00  0.00    -0.273 OA
ATOM     34  H   UNL     1       2.774 -13.681 -46.820  1.00  0.00     0.169 HD
BRANCH  32  35
ATOM     35  C   UNL     1       0.732 -14.498 -45.732  1.00  0.00     0.128 C 
ATOM     36  C   UNL     1       0.598 -13.977 -47.163  1.00  0.00     0.028 C 
ATOM     37  C   UNL     1      -0.101 -13.256 -46.055  1.00  0.00     0.028 C 
BRANCH  35  38
ATOM     38  C   UNL     1       0.009 -15.765 -45.388  1.00  0.00     0.240 C 
ATOM     39  O   UNL     1      -0.166 -16.600 -46.265  1.00  0.00    -0.274 OA
ATOM     40  N   UNL     1      -0.394 -15.818 -44.069  1.00  0.00    -0.325 N 
ATOM     41  H   UNL     1      -0.181 -15.000 -43.507  1.00  0.00     0.169 HD
BRANCH  40  42
ATOM     42  C   UNL     1      -1.113 -16.845 -43.431  1.00  0.00     0.041 A 
ATOM     43  C   UNL     1      -0.531 -17.796 -42.586  1.00  0.00     0.029 A 
ATOM     44  C   UNL     1      -2.493 -16.901 -43.666  1.00  0.00     0.029 A 
ATOM     45  C   UNL     1      -1.314 -18.792 -41.996  1.00  0.00     0.041 A 
ATOM     46  C   UNL     1      -3.276 -17.895 -43.074  1.00  0.00     0.041 A 
ATOM     47  C   UNL     1      -2.678 -18.834 -42.246  1.00  0.00     0.123 A 
ATOM     48  F   UNL     1      -3.426 -19.794 -41.687  1.00  0.00    -0.207 F 
ENDBRANCH  40  42
ENDBRANCH  35  38
ENDBRANCH  32  35
ENDBRANCH  29  31
ENDBRANCH   1  24
TORSDOF 12
ENDMDL
MODEL 6
REMARK VINA RESULT:    -8.935      1.648      2.274
REMARK INTER + INTRA:         -16.278
REMARK INTER:                 -14.925
REMARK INTRA:                  -1.352
REMARK UNBOUND:                -1.075
REMARK SMILES COc1cc2c(Oc3ccc(NC(=O)C4(C(=O)Nc5ccc(F)cc5)CC4)cc3F)ccnc2cc1OCCCN1CCOCC1
REMARK SMILES IDX 7 1 6 2 3 3 4 4 36 5 5 6 35 7 34 8 31 9 33 10 32 11 2 12
REMARK SMILES IDX 1 13 37 14 38 15 39 16 40 17 41 18 42 19 46 20 43 21 45 22
REMARK SMILES IDX 44 23 8 24 9 25 29 26 10 27 28 28 11 29 30 30 12 31 13 32
REMARK SMILES IDX 14 33 15 35 26 36 27 37 16 38 17 39 18 40 19 42 20 43 25 44
REMARK SMILES IDX 21 45 24 46 22 47 23 48
REMARK H PARENT 12 34 18 41
ROOT
ATOM      1  O   UNL     1       6.510 -12.094 -45.747  1.00  0.00    -0.454 OA
ENDROOT
BRANCH   1   2
ATOM      2  C   UNL     1       6.417 -10.787 -45.321  1.00  0.00     0.138 A 
ATOM      3  C   UNL     1       2.717 -10.189 -45.041  1.00  0.00     0.161 A 
ATOM      4  C   UNL     1       3.926 -10.840 -45.291  1.00  0.00     0.064 A 
ATOM      5  C   UNL     1       2.736  -8.859 -44.587  1.00  0.00     0.163 A 
ATOM      6  C   UNL     1       5.162 -10.183 -45.095  1.00  0.00     0.047 A 
ATOM      7  C   UNL     1       3.963  -8.218 -44.395  1.00  0.00     0.079 A 
ATOM      8  C   UNL     1       5.175  -8.856 -44.631  1.00  0.00     0.078 A 
ATOM      9  C   UNL     1       7.597 -10.116 -45.023  1.00  0.00     0.068 A 
ATOM     10  N   UNL     1       6.315  -8.184 -44.392  1.00  0.00    -0.256 NA
ATOM     11  C   UNL     1       7.492  -8.820 -44.575  1.00  0.00     0.115 A 
BRANCH   3  12
ATOM     12  O   UNL     1       1.479 -10.758 -45.206  1.00  0.00    -0.493 OA
ATOM     13  C   UNL     1       1.387 -11.918 -46.020  1.00  0.00     0.278 C 
ENDBRANCH   3  12
BRANCH   5  14
ATOM     14  O   UNL     1       1.509  -8.294 -44.358  1.00  0.00    -0.490 OA
BRANCH  14  15
ATOM     15  C   UNL     1       1.275  -6.930 -44.695  1.00  0.00     0.231 C 
BRANCH  15  16
ATOM     16  C   UNL     1      -0.021  -6.750 -45.488  1.00  0.00     0.057 C 
BRANCH  16  17
ATOM     17  C   UNL     1      -1.260  -6.947 -44.600  1.00  0.00     0.088 C 
BRANCH  17  18
ATOM     18  N   UNL     1      -1.743  -8.322 -44.432  1.00  0.00    -0.299 NA
ATOM     19  C   UNL     1      -3.090  -8.412 -43.841  1.00  0.00     0.113 C 
ATOM     20  C   UNL     1      -1.694  -9.123 -45.668  1.00  0.00     0.113 C 
ATOM     21  C   UNL     1      -3.480  -9.879 -43.604  1.00  0.00     0.175 C 
ATOM     22  C   UNL     1      -2.117 -10.574 -45.390  1.00  0.00     0.175 C 
ATOM     23  O   UNL     1      -3.434 -10.634 -44.824  1.00  0.00    -0.379 OA
ENDBRANCH  17  18
ENDBRANCH  16  17
ENDBRANCH  15  16
ENDBRANCH  14  15
ENDBRANCH   5  14
ENDBRANCH   1   2
BRANCH   1  24
ATOM     24  C   UNL     1       6.294 -13.076 -44.805  1.00  0.00     0.163 A 
ATOM     25  C   UNL     1       6.827 -13.062 -43.517  1.00  0.00     0.052 A 
ATOM     26  C   UNL     1       5.429 -14.109 -45.165  1.00  0.00     0.167 A 
ATOM     27  C   UNL     1       6.497 -14.079 -42.610  1.00  0.00     0.030 A 
ATOM     28  C   UNL     1       5.104 -15.125 -44.270  1.00  0.00     0.069 A 
ATOM     29  C   UNL     1       5.632 -15.113 -42.976  1.00  0.00     0.044 A 
ATOM     30  F   UNL     1       4.905 -14.149 -46.399  1.00  0.00    -0.203 F 
BRANCH  29  31
ATOM     31  N   UNL     1       5.249 -16.160 -42.117  1.00  0.00    -0.325 N 
ATOM     32  C   UNL     1       5.693 -17.466 -42.137  1.00  0.00     0.240 C 
ATOM     33  O   UNL     1       6.523 -17.971 -42.879  1.00  0.00    -0.273 OA
ATOM     34  H   UNL     1       4.612 -15.921 -41.364  1.00  0.00     0.169 HD
BRANCH  32  35
ATOM     35  C   UNL     1       5.080 -18.311 -41.063  1.00  0.00     0.128 C 
ATOM     36  C   UNL     1       5.091 -17.778 -39.629  1.00  0.00     0.028 C 
ATOM     37  C   UNL     1       6.017 -18.892 -40.002  1.00  0.00     0.028 C 
BRANCH  35  38
ATOM     38  C   UNL     1       3.898 -19.128 -41.487  1.00  0.00     0.240 C 
ATOM     39  O   UNL     1       4.087 -20.117 -42.183  1.00  0.00    -0.274 OA
ATOM     40  N   UNL     1       2.699 -18.626 -41.027  1.00  0.00    -0.325 N 
ATOM     41  H   UNL     1       2.754 -17.766 -40.489  1.00  0.00     0.169 HD
BRANCH  40  42
ATOM     42  C   UNL     1       1.407 -19.132 -41.264  1.00  0.00     0.041 A 
ATOM     43  C   UNL     1       0.360 -18.376 -41.799  1.00  0.00     0.029 A 
ATOM     44  C   UNL     1       1.178 -20.476 -40.941  1.00  0.00     0.029 A 
ATOM     45  C   UNL     1      -0.899 -18.952 -41.996  1.00  0.00     0.041 A 
ATOM     46  C   UNL     1      -0.079 -21.052 -41.141  1.00  0.00     0.041 A 
ATOM     47  C   UNL     1      -1.108 -20.282 -41.665  1.00  0.00     0.123 A 
ATOM     48  F   UNL     1      -2.316 -20.831 -41.846  1.00  0.00    -0.207 F 
ENDBRANCH  40  42
ENDBRANCH  35  38
ENDBRANCH  32  35
ENDBRANCH  29  31
ENDBRANCH   1  24
TORSDOF 12
ENDMDL
MODEL 7
REMARK VINA RESULT:    -8.901      4.835      8.791
REMARK INTER + INTRA:         -16.220
REMARK INTER:                 -14.978
REMARK INTRA:                  -1.241
REMARK UNBOUND:                -1.075
REMARK SMILES COc1cc2c(Oc3ccc(NC(=O)C4(C(=O)Nc5ccc(F)cc5)CC4)cc3F)ccnc2cc1OCCCN1CCOCC1
REMARK SMILES IDX 7 1 6 2 3 3 4 4 36 5 5 6 35 7 34 8 31 9 33 10 32 11 2 12
REMARK SMILES IDX 1 13 37 14 38 15 39 16 40 17 41 18 42 19 46 20 43 21 45 22
REMARK SMILES IDX 44 23 8 24 9 25 29 26 10 27 28 28 11 29 30 30 12 31 13 32
REMARK SMILES IDX 14 33 15 35 26 36 27 37 16 38 17 39 18 40 19 42 20 43 25 44
REMARK SMILES IDX 21 45 24 46 22 47 23 48
REMARK H PARENT 12 34 18 41
ROOT
ATOM      1  O   UNL     1       1.202 -19.717 -40.198  1.00  0.00    -0.454 OA
ENDROOT
BRANCH   1   2
ATOM      2  C   UNL     1       0.117 -19.662 -41.047  1.00  0.00     0.138 A 
ATOM      3  C   UNL     1       0.569 -16.415 -42.885  1.00  0.00     0.161 A 
ATOM      4  C   UNL     1       0.806 -17.462 -41.993  1.00  0.00     0.064 A 
ATOM      5  C   UNL     1      -0.557 -16.470 -43.723  1.00  0.00     0.163 A 
ATOM      6  C   UNL     1      -0.069 -18.570 -41.920  1.00  0.00     0.047 A 
ATOM      7  C   UNL     1      -1.416 -17.571 -43.645  1.00  0.00     0.079 A 
ATOM      8  C   UNL     1      -1.190 -18.624 -42.767  1.00  0.00     0.078 A 
ATOM      9  C   UNL     1      -0.730 -20.763 -41.086  1.00  0.00     0.068 A 
ATOM     10  N   UNL     1      -2.044 -19.663 -42.773  1.00  0.00    -0.256 NA
ATOM     11  C   UNL     1      -1.796 -20.709 -41.954  1.00  0.00     0.115 A 
BRANCH   3  12
ATOM     12  O   UNL     1       1.371 -15.310 -43.016  1.00  0.00    -0.493 OA
ATOM     13  C   UNL     1       2.613 -15.468 -43.685  1.00  0.00     0.278 C 
ENDBRANCH   3  12
BRANCH   5  14
ATOM     14  O   UNL     1      -0.714 -15.409 -44.576  1.00  0.00    -0.490 OA
BRANCH  14  15
ATOM     15  C   UNL     1      -0.506 -15.579 -45.974  1.00  0.00     0.231 C 
BRANCH  15  16
ATOM     16  C   UNL     1       0.044 -14.310 -46.630  1.00  0.00     0.057 C 
BRANCH  16  17
ATOM     17  C   UNL     1       0.255 -13.188 -45.601  1.00  0.00     0.088 C 
BRANCH  17  18
ATOM     18  N   UNL     1      -0.665 -12.047 -45.668  1.00  0.00    -0.299 NA
ATOM     19  C   UNL     1      -0.084 -10.784 -45.179  1.00  0.00     0.113 C 
ATOM     20  C   UNL     1      -1.250 -11.834 -47.003  1.00  0.00     0.113 C 
ATOM     21  C   UNL     1      -1.138  -9.665 -45.185  1.00  0.00     0.175 C 
ATOM     22  C   UNL     1      -2.276 -10.690 -46.970  1.00  0.00     0.175 C 
ATOM     23  O   UNL     1      -1.683  -9.472 -46.499  1.00  0.00    -0.379 OA
ENDBRANCH  17  18
ENDBRANCH  16  17
ENDBRANCH  15  16
ENDBRANCH  14  15
ENDBRANCH   5  14
ENDBRANCH   1   2
BRANCH   1  24
ATOM     24  C   UNL     1       2.442 -19.871 -40.778  1.00  0.00     0.163 A 
ATOM     25  C   UNL     1       2.717 -20.747 -41.827  1.00  0.00     0.052 A 
ATOM     26  C   UNL     1       3.459 -19.039 -40.311  1.00  0.00     0.167 A 
ATOM     27  C   UNL     1       4.000 -20.787 -42.391  1.00  0.00     0.030 A 
ATOM     28  C   UNL     1       4.737 -19.080 -40.864  1.00  0.00     0.069 A 
ATOM     29  C   UNL     1       5.016 -19.953 -41.918  1.00  0.00     0.044 A 
ATOM     30  F   UNL     1       3.224 -18.189 -39.301  1.00  0.00    -0.203 F 
BRANCH  29  31
ATOM     31  N   UNL     1       6.322 -19.932 -42.442  1.00  0.00    -0.325 N 
ATOM     32  C   UNL     1       7.132 -21.014 -42.721  1.00  0.00     0.240 C 
ATOM     33  O   UNL     1       6.873 -22.202 -42.600  1.00  0.00    -0.273 OA
ATOM     34  H   UNL     1       6.699 -19.022 -42.690  1.00  0.00     0.169 HD
BRANCH  32  35
ATOM     35  C   UNL     1       8.464 -20.621 -43.283  1.00  0.00     0.128 C 
ATOM     36  C   UNL     1       8.576 -19.279 -44.007  1.00  0.00     0.028 C 
ATOM     37  C   UNL     1       8.592 -20.544 -44.805  1.00  0.00     0.028 C 
BRANCH  35  38
ATOM     38  C   UNL     1       9.652 -21.084 -42.496  1.00  0.00     0.240 C 
ATOM     39  O   UNL     1      10.683 -21.358 -43.094  1.00  0.00    -0.274 OA
ATOM     40  N   UNL     1       9.409 -21.154 -41.140  1.00  0.00    -0.325 N 
ATOM     41  H   UNL     1       8.468 -20.915 -40.843  1.00  0.00     0.169 HD
BRANCH  40  42
ATOM     42  C   UNL     1      10.295 -21.572 -40.129  1.00  0.00     0.041 A 
ATOM     43  C   UNL     1      10.465 -22.906 -39.745  1.00  0.00     0.029 A 
ATOM     44  C   UNL     1      11.041 -20.579 -39.482  1.00  0.00     0.029 A 
ATOM     45  C   UNL     1      11.360 -23.239 -38.724  1.00  0.00     0.041 A 
ATOM     46  C   UNL     1      11.937 -20.912 -38.463  1.00  0.00     0.041 A 
ATOM     47  C   UNL     1      12.087 -22.241 -38.091  1.00  0.00     0.123 A 
ATOM     48  F   UNL     1      12.937 -22.561 -37.107  1.00  0.00    -0.207 F 
ENDBRANCH  40  42
ENDBRANCH  35  38
ENDBRANCH  32  35
ENDBRANCH  29  31
ENDBRANCH   1  24
TORSDOF 12
ENDMDL
MODEL 8
REMARK VINA RESULT:    -8.894      3.309     10.009
REMARK INTER + INTRA:         -16.209
REMARK INTER:                 -14.490
REMARK INTRA:                  -1.719
REMARK UNBOUND:                -1.075
REMARK SMILES COc1cc2c(Oc3ccc(NC(=O)C4(C(=O)Nc5ccc(F)cc5)CC4)cc3F)ccnc2cc1OCCCN1CCOCC1
REMARK SMILES IDX 7 1 6 2 3 3 4 4 36 5 5 6 35 7 34 8 31 9 33 10 32 11 2 12
REMARK SMILES IDX 1 13 37 14 38 15 39 16 40 17 41 18 42 19 46 20 43 21 45 22
REMARK SMILES IDX 44 23 8 24 9 25 29 26 10 27 28 28 11 29 30 30 12 31 13 32
REMARK SMILES IDX 14 33 15 35 26 36 27 37 16 38 17 39 18 40 19 42 20 43 25 44
REMARK SMILES IDX 21 45 24 46 22 47 23 48
REMARK H PARENT 12 34 18 41
ROOT
ATOM      1  O   UNL     1       7.920 -12.539 -45.137  1.00  0.00    -0.454 OA
ENDROOT
BRANCH   1   2
ATOM      2  C   UNL     1       8.007 -13.283 -43.981  1.00  0.00     0.138 A 
ATOM      3  C   UNL     1       6.979 -16.737 -45.049  1.00  0.00     0.161 A 
ATOM      4  C   UNL     1       7.266 -15.373 -45.118  1.00  0.00     0.064 A 
ATOM      5  C   UNL     1       7.122 -17.406 -43.822  1.00  0.00     0.163 A 
ATOM      6  C   UNL     1       7.694 -14.659 -43.976  1.00  0.00     0.047 A 
ATOM      7  C   UNL     1       7.548 -16.692 -42.697  1.00  0.00     0.079 A 
ATOM      8  C   UNL     1       7.845 -15.335 -42.753  1.00  0.00     0.078 A 
ATOM      9  C   UNL     1       8.509 -12.659 -42.845  1.00  0.00     0.068 A 
ATOM     10  N   UNL     1       8.280 -14.724 -41.636  1.00  0.00    -0.256 NA
ATOM     11  C   UNL     1       8.614 -13.417 -41.702  1.00  0.00     0.115 A 
BRANCH   3  12
ATOM     12  O   UNL     1       6.561 -17.498 -46.111  1.00  0.00    -0.493 OA
ATOM     13  C   UNL     1       5.357 -17.119 -46.763  1.00  0.00     0.278 C 
ENDBRANCH   3  12
BRANCH   5  14
ATOM     14  O   UNL     1       6.830 -18.744 -43.838  1.00  0.00    -0.490 OA
BRANCH  14  15
ATOM     15  C   UNL     1       5.517 -19.194 -43.519  1.00  0.00     0.231 C 
BRANCH  15  16
ATOM     16  C   UNL     1       5.515 -20.157 -42.329  1.00  0.00     0.057 C 
BRANCH  16  17
ATOM     17  C   UNL     1       5.037 -19.465 -41.043  1.00  0.00     0.088 C 
BRANCH  17  18
ATOM     18  N   UNL     1       3.692 -19.806 -40.567  1.00  0.00    -0.299 NA
ATOM     19  C   UNL     1       2.924 -18.649 -40.074  1.00  0.00     0.113 C 
ATOM     20  C   UNL     1       2.885 -20.548 -41.551  1.00  0.00     0.113 C 
ATOM     21  C   UNL     1       1.571 -19.102 -39.500  1.00  0.00     0.175 C 
ATOM     22  C   UNL     1       1.533 -20.957 -40.946  1.00  0.00     0.175 C 
ATOM     23  O   UNL     1       0.802 -19.812 -40.482  1.00  0.00    -0.379 OA
ENDBRANCH  17  18
ENDBRANCH  16  17
ENDBRANCH  15  16
ENDBRANCH  14  15
ENDBRANCH   5  14
ENDBRANCH   1   2
BRANCH   1  24
ATOM     24  C   UNL     1       6.887 -11.631 -45.221  1.00  0.00     0.163 A 
ATOM     25  C   UNL     1       5.538 -11.978 -45.284  1.00  0.00     0.052 A 
ATOM     26  C   UNL     1       7.234 -10.282 -45.171  1.00  0.00     0.167 A 
ATOM     27  C   UNL     1       4.556 -10.978 -45.304  1.00  0.00     0.030 A 
ATOM     28  C   UNL     1       6.262  -9.284 -45.198  1.00  0.00     0.069 A 
ATOM     29  C   UNL     1       4.909  -9.627 -45.257  1.00  0.00     0.044 A 
ATOM     30  F   UNL     1       8.523  -9.919 -45.114  1.00  0.00    -0.203 F 
BRANCH  29  31
ATOM     31  N   UNL     1       3.978  -8.571 -45.264  1.00  0.00    -0.325 N 
ATOM     32  C   UNL     1       3.240  -8.097 -44.200  1.00  0.00     0.240 C 
ATOM     33  O   UNL     1       3.262  -8.474 -43.037  1.00  0.00    -0.273 OA
ATOM     34  H   UNL     1       3.871  -8.064 -46.138  1.00  0.00     0.169 HD
BRANCH  32  35
ATOM     35  C   UNL     1       2.352  -6.948 -44.566  1.00  0.00     0.128 C 
ATOM     36  C   UNL     1       2.966  -5.774 -45.331  1.00  0.00     0.028 C 
ATOM     37  C   UNL     1       2.622  -5.604 -43.886  1.00  0.00     0.028 C 
BRANCH  35  38
ATOM     38  C   UNL     1       0.932  -7.309 -44.880  1.00  0.00     0.240 C 
ATOM     39  O   UNL     1       0.239  -6.501 -45.482  1.00  0.00    -0.274 OA
ATOM     40  N   UNL     1       0.576  -8.558 -44.414  1.00  0.00    -0.325 N 
ATOM     41  H   UNL     1       1.293  -9.063 -43.902  1.00  0.00     0.169 HD
BRANCH  40  42
ATOM     42  C   UNL     1      -0.679  -9.187 -44.515  1.00  0.00     0.041 A 
ATOM     43  C   UNL     1      -1.128  -9.851 -45.661  1.00  0.00     0.029 A 
ATOM     44  C   UNL     1      -1.512  -9.136 -43.390  1.00  0.00     0.029 A 
ATOM     45  C   UNL     1      -2.394 -10.444 -45.685  1.00  0.00     0.041 A 
ATOM     46  C   UNL     1      -2.776  -9.731 -43.412  1.00  0.00     0.041 A 
ATOM     47  C   UNL     1      -3.207 -10.378 -44.562  1.00  0.00     0.123 A 
ATOM     48  F   UNL     1      -4.423 -10.939 -44.589  1.00  0.00    -0.207 F 
ENDBRANCH  40  42
ENDBRANCH  35  38
ENDBRANCH  32  35
ENDBRANCH  29  31
ENDBRANCH   1  24
TORSDOF 12
ENDMDL
MODEL 9
REMARK VINA RESULT:    -8.863      3.567      8.479
REMARK INTER + INTRA:         -16.155
REMARK INTER:                 -14.934
REMARK INTRA:                  -1.221
REMARK UNBOUND:                -1.075
REMARK SMILES COc1cc2c(Oc3ccc(NC(=O)C4(C(=O)Nc5ccc(F)cc5)CC4)cc3F)ccnc2cc1OCCCN1CCOCC1
REMARK SMILES IDX 7 1 6 2 3 3 4 4 36 5 5 6 35 7 34 8 31 9 33 10 32 11 2 12
REMARK SMILES IDX 1 13 37 14 38 15 39 16 40 17 41 18 42 19 46 20 43 21 45 22
REMARK SMILES IDX 44 23 8 24 9 25 29 26 10 27 28 28 11 29 30 30 12 31 13 32
REMARK SMILES IDX 14 33 15 35 26 36 27 37 16 38 17 39 18 40 19 42 20 43 25 44
REMARK SMILES IDX 21 45 24 46 22 47 23 48
REMARK H PARENT 12 34 18 41
ROOT
ATOM      1  O   UNL     1       1.509 -19.758 -40.282  1.00  0.00    -0.454 OA
ENDROOT
BRANCH   1   2
ATOM      2  C   UNL     1       0.365 -19.691 -41.048  1.00  0.00     0.138 A 
ATOM      3  C   UNL     1       0.682 -16.416 -42.864  1.00  0.00     0.161 A 
ATOM      4  C   UNL     1       0.983 -17.477 -42.007  1.00  0.00     0.064 A 
ATOM      5  C   UNL     1      -0.503 -16.459 -43.617  1.00  0.00     0.163 A 
ATOM      6  C   UNL     1       0.116 -18.586 -41.887  1.00  0.00     0.047 A 
ATOM      7  C   UNL     1      -1.354 -17.562 -43.494  1.00  0.00     0.079 A 
ATOM      8  C   UNL     1      -1.064 -18.628 -42.651  1.00  0.00     0.078 A 
ATOM      9  C   UNL     1      -0.483 -20.792 -41.042  1.00  0.00     0.068 A 
ATOM     10  N   UNL     1      -1.916 -19.668 -42.611  1.00  0.00    -0.256 NA
ATOM     11  C   UNL     1      -1.609 -20.726 -41.829  1.00  0.00     0.115 A 
BRANCH   3  12
ATOM     12  O   UNL     1       1.472 -15.308 -43.035  1.00  0.00    -0.493 OA
ATOM     13  C   UNL     1       2.732 -15.484 -43.667  1.00  0.00     0.278 C 
ENDBRANCH   3  12
BRANCH   5  14
ATOM     14  O   UNL     1      -0.722 -15.386 -44.440  1.00  0.00    -0.490 OA
BRANCH  14  15
ATOM     15  C   UNL     1      -0.494 -15.500 -45.841  1.00  0.00     0.231 C 
BRANCH  15  16
ATOM     16  C   UNL     1       0.426 -14.394 -46.364  1.00  0.00     0.057 C 
BRANCH  16  17
ATOM     17  C   UNL     1      -0.298 -13.040 -46.431  1.00  0.00     0.088 C 
BRANCH  17  18
ATOM     18  N   UNL     1      -0.368 -12.264 -45.187  1.00  0.00    -0.299 NA
ATOM     19  C   UNL     1       0.931 -12.108 -44.509  1.00  0.00     0.113 C 
ATOM     20  C   UNL     1      -1.002 -10.944 -45.347  1.00  0.00     0.113 C 
ATOM     21  C   UNL     1       0.757 -11.375 -43.169  1.00  0.00     0.175 C 
ATOM     22  C   UNL     1      -1.131 -10.237 -43.989  1.00  0.00     0.175 C 
ATOM     23  O   UNL     1       0.148 -10.089 -43.355  1.00  0.00    -0.379 OA
ENDBRANCH  17  18
ENDBRANCH  16  17
ENDBRANCH  15  16
ENDBRANCH  14  15
ENDBRANCH   5  14
ENDBRANCH   1   2
BRANCH   1  24
ATOM     24  C   UNL     1       2.703 -19.909 -40.952  1.00  0.00     0.163 A 
ATOM     25  C   UNL     1       2.914 -20.815 -41.990  1.00  0.00     0.052 A 
ATOM     26  C   UNL     1       3.735 -19.042 -40.596  1.00  0.00     0.167 A 
ATOM     27  C   UNL     1       4.149 -20.849 -42.653  1.00  0.00     0.030 A 
ATOM     28  C   UNL     1       4.966 -19.077 -41.246  1.00  0.00     0.069 A 
ATOM     29  C   UNL     1       5.180 -19.981 -42.290  1.00  0.00     0.044 A 
ATOM     30  F   UNL     1       3.562 -18.162 -39.598  1.00  0.00    -0.203 F 
BRANCH  29  31
ATOM     31  N   UNL     1       6.441 -19.952 -42.916  1.00  0.00    -0.325 N 
ATOM     32  C   UNL     1       7.348 -20.986 -43.021  1.00  0.00     0.240 C 
ATOM     33  O   UNL     1       7.234 -22.135 -42.621  1.00  0.00    -0.273 OA
ATOM     34  H   UNL     1       6.696 -19.090 -43.388  1.00  0.00     0.169 HD
BRANCH  32  35
ATOM     35  C   UNL     1       8.590 -20.604 -43.767  1.00  0.00     0.128 C 
ATOM     36  C   UNL     1       9.483 -21.723 -44.305  1.00  0.00     0.028 C 
ATOM     37  C   UNL     1       9.934 -20.935 -43.116  1.00  0.00     0.028 C 
BRANCH  35  38
ATOM     38  C   UNL     1       8.488 -19.350 -44.581  1.00  0.00     0.240 C 
ATOM     39  O   UNL     1       8.188 -19.439 -45.764  1.00  0.00    -0.274 OA
ATOM     40  N   UNL     1       8.771 -18.210 -43.857  1.00  0.00    -0.325 N 
ATOM     41  H   UNL     1       9.035 -18.353 -42.887  1.00  0.00     0.169 HD
BRANCH  40  42
ATOM     42  C   UNL     1       8.793 -16.881 -44.320  1.00  0.00     0.041 A 
ATOM     43  C   UNL     1       9.955 -16.215 -44.722  1.00  0.00     0.029 A 
ATOM     44  C   UNL     1       7.568 -16.204 -44.377  1.00  0.00     0.029 A 
ATOM     45  C   UNL     1       9.893 -14.889 -45.162  1.00  0.00     0.041 A 
ATOM     46  C   UNL     1       7.506 -14.880 -44.819  1.00  0.00     0.041 A 
ATOM     47  C   UNL     1       8.672 -14.233 -45.206  1.00  0.00     0.123 A 
ATOM     48  F   UNL     1       8.615 -12.961 -45.620  1.00  0.00    -0.207 F 
ENDBRANCH  40  42
ENDBRANCH  35  38
ENDBRANCH  32  35
ENDBRANCH  29  31
ENDBRANCH   1  24
TORSDOF 12
ENDMDL
MODEL 10
REMARK VINA RESULT:    -8.849      3.525     10.482
REMARK INTER + INTRA:         -16.131
REMARK INTER:                 -14.620
REMARK INTRA:                  -1.512
REMARK UNBOUND:                -1.075
REMARK SMILES COc1cc2c(Oc3ccc(NC(=O)C4(C(=O)Nc5ccc(F)cc5)CC4)cc3F)ccnc2cc1OCCCN1CCOCC1
REMARK SMILES IDX 7 1 6 2 3 3 4 4 36 5 5 6 35 7 34 8 31 9 33 10 32 11 2 12
REMARK SMILES IDX 1 13 37 14 38 15 39 16 40 17 41 18 42 19 46 20 43 21 45 22
REMARK SMILES IDX 44 23 8 24 9 25 29 26 10 27 28 28 11 29 30 30 12 31 13 32
REMARK SMILES IDX 14 33 15 35 26 36 27 37 16 38 17 39 18 40 19 42 20 43 25 44
REMARK SMILES IDX 21 45 24 46 22 47 23 48
REMARK H PARENT 12 34 18 41
ROOT
ATOM      1  O   UNL     1       7.802 -11.194 -44.284  1.00  0.00    -0.454 OA
ENDROOT
BRANCH   1   2
ATOM      2  C   UNL     1       7.600 -11.954 -43.152  1.00  0.00     0.138 A 
ATOM      3  C   UNL     1       7.072 -15.430 -44.478  1.00  0.00     0.161 A 
ATOM      4  C   UNL     1       7.302 -14.054 -44.459  1.00  0.00     0.064 A 
ATOM      5  C   UNL     1       6.901 -16.113 -43.262  1.00  0.00     0.163 A 
ATOM      6  C   UNL     1       7.364 -13.342 -43.240  1.00  0.00     0.047 A 
ATOM      7  C   UNL     1       6.965 -15.401 -42.061  1.00  0.00     0.079 A 
ATOM      8  C   UNL     1       7.201 -14.032 -42.026  1.00  0.00     0.078 A 
ATOM      9  C   UNL     1       7.738 -11.328 -41.919  1.00  0.00     0.068 A 
ATOM     10  N   UNL     1       7.281 -13.421 -40.830  1.00  0.00    -0.256 NA
ATOM     11  C   UNL     1       7.559 -12.100 -40.795  1.00  0.00     0.115 A 
BRANCH   3  12
ATOM     12  O   UNL     1       7.000 -16.191 -45.618  1.00  0.00    -0.493 OA
ATOM     13  C   UNL     1       5.937 -15.929 -46.522  1.00  0.00     0.278 C 
ENDBRANCH   3  12
BRANCH   5  14
ATOM     14  O   UNL     1       6.689 -17.463 -43.365  1.00  0.00    -0.490 OA
BRANCH  14  15
ATOM     15  C   UNL     1       5.374 -17.993 -43.228  1.00  0.00     0.231 C 
BRANCH  15  16
ATOM     16  C   UNL     1       5.388 -19.447 -42.750  1.00  0.00     0.057 C 
BRANCH  16  17
ATOM     17  C   UNL     1       5.222 -19.542 -41.225  1.00  0.00     0.088 C 
BRANCH  17  18
ATOM     18  N   UNL     1       3.870 -19.812 -40.721  1.00  0.00    -0.299 NA
ATOM     19  C   UNL     1       3.166 -18.613 -40.233  1.00  0.00     0.113 C 
ATOM     20  C   UNL     1       3.012 -20.530 -41.681  1.00  0.00     0.113 C 
ATOM     21  C   UNL     1       1.804 -18.994 -39.630  1.00  0.00     0.175 C 
ATOM     22  C   UNL     1       1.653 -20.865 -41.046  1.00  0.00     0.175 C 
ATOM     23  O   UNL     1       0.986 -19.681 -40.588  1.00  0.00    -0.379 OA
ENDBRANCH  17  18
ENDBRANCH  16  17
ENDBRANCH  15  16
ENDBRANCH  14  15
ENDBRANCH   5  14
ENDBRANCH   1   2
BRANCH   1  24
ATOM     24  C   UNL     1       6.758 -10.393 -44.694  1.00  0.00     0.163 A 
ATOM     25  C   UNL     1       5.600 -10.864 -45.310  1.00  0.00     0.052 A 
ATOM     26  C   UNL     1       6.862  -9.033 -44.404  1.00  0.00     0.167 A 
ATOM     27  C   UNL     1       4.566  -9.975 -45.634  1.00  0.00     0.030 A 
ATOM     28  C   UNL     1       5.840  -8.145 -44.730  1.00  0.00     0.069 A 
ATOM     29  C   UNL     1       4.675  -8.612 -45.344  1.00  0.00     0.044 A 
ATOM     30  F   UNL     1       7.966  -8.552 -43.815  1.00  0.00    -0.203 F 
BRANCH  29  31
ATOM     31  N   UNL     1       3.675  -7.664 -45.631  1.00  0.00    -0.325 N 
ATOM     32  C   UNL     1       2.579  -7.342 -44.859  1.00  0.00     0.240 C 
ATOM     33  O   UNL     1       2.268  -7.789 -43.764  1.00  0.00    -0.273 OA
ATOM     34  H   UNL     1       3.796  -7.118 -46.478  1.00  0.00     0.169 HD
BRANCH  32  35
ATOM     35  C   UNL     1       1.724  -6.274 -45.469  1.00  0.00     0.128 C 
ATOM     36  C   UNL     1       2.050  -5.809 -46.889  1.00  0.00     0.028 C 
ATOM     37  C   UNL     1       2.375  -4.916 -45.735  1.00  0.00     0.028 C 
BRANCH  35  38
ATOM     38  C   UNL     1       0.281  -6.300 -45.065  1.00  0.00     0.240 C 
ATOM     39  O   UNL     1      -0.168  -5.357 -44.428  1.00  0.00    -0.274 OA
ATOM     40  N   UNL     1      -0.375  -7.443 -45.472  1.00  0.00    -0.325 N 
ATOM     41  H   UNL     1       0.190  -8.129 -45.963  1.00  0.00     0.169 HD
BRANCH  40  42
ATOM     42  C   UNL     1      -1.717  -7.794 -45.235  1.00  0.00     0.041 A 
ATOM     43  C   UNL     1      -2.781  -7.398 -46.052  1.00  0.00     0.029 A 
ATOM     44  C   UNL     1      -1.982  -8.589 -44.112  1.00  0.00     0.029 A 
ATOM     45  C   UNL     1      -4.090  -7.782 -45.744  1.00  0.00     0.041 A 
ATOM     46  C   UNL     1      -3.290  -8.974 -43.806  1.00  0.00     0.041 A 
ATOM     47  C   UNL     1      -4.333  -8.564 -44.624  1.00  0.00     0.123 A 
ATOM     48  F   UNL     1      -5.588  -8.923 -44.325  1.00  0.00    -0.207 F 
ENDBRANCH  40  42
ENDBRANCH  35  38
ENDBRANCH  32  35
ENDBRANCH  29  31
ENDBRANCH   1  24
TORSDOF 12
ENDMDL
MODEL 11
REMARK VINA RESULT:    -8.693      4.014     10.480
REMARK INTER + INTRA:         -15.865
REMARK INTER:                 -14.552
REMARK INTRA:                  -1.313
REMARK UNBOUND:                -1.075
REMARK SMILES COc1cc2c(Oc3ccc(NC(=O)C4(C(=O)Nc5ccc(F)cc5)CC4)cc3F)ccnc2cc1OCCCN1CCOCC1
REMARK SMILES IDX 7 1 6 2 3 3 4 4 36 5 5 6 35 7 34 8 31 9 33 10 32 11 2 12
REMARK SMILES IDX 1 13 37 14 38 15 39 16 40 17 41 18 42 19 46 20 43 21 45 22
REMARK SMILES IDX 44 23 8 24 9 25 29 26 10 27 28 28 11 29 30 30 12 31 13 32
REMARK SMILES IDX 14 33 15 35 26 36 27 37 16 38 17 39 18 40 19 42 20 43 25 44
REMARK SMILES IDX 21 45 24 46 22 47 23 48
REMARK H PARENT 12 34 18 41
ROOT
ATOM      1  O   UNL     1       8.651 -16.211 -43.139  1.00  0.00    -0.454 OA
ENDROOT
BRANCH   1   2
ATOM      2  C   UNL     1       7.856 -17.068 -43.869  1.00  0.00     0.138 A 
ATOM      3  C   UNL     1       6.148 -19.165 -41.260  1.00  0.00     0.161 A 
ATOM      4  C   UNL     1       6.980 -18.200 -41.830  1.00  0.00     0.064 A 
ATOM      5  C   UNL     1       5.361 -19.972 -42.098  1.00  0.00     0.163 A 
ATOM      6  C   UNL     1       7.043 -18.027 -43.232  1.00  0.00     0.047 A 
ATOM      7  C   UNL     1       5.428 -19.793 -43.483  1.00  0.00     0.079 A 
ATOM      8  C   UNL     1       6.245 -18.832 -44.064  1.00  0.00     0.078 A 
ATOM      9  C   UNL     1       7.805 -16.887 -45.246  1.00  0.00     0.068 A 
ATOM     10  N   UNL     1       6.231 -18.698 -45.403  1.00  0.00    -0.256 NA
ATOM     11  C   UNL     1       6.990 -17.731 -45.964  1.00  0.00     0.115 A 
BRANCH   3  12
ATOM     12  O   UNL     1       6.031 -19.391 -39.912  1.00  0.00    -0.493 OA
ATOM     13  C   UNL     1       6.488 -18.378 -39.028  1.00  0.00     0.278 C 
ENDBRANCH   3  12
BRANCH   5  14
ATOM     14  O   UNL     1       4.565 -20.888 -41.461  1.00  0.00    -0.490 OA
BRANCH  14  15
ATOM     15  C   UNL     1       3.147 -20.789 -41.551  1.00  0.00     0.231 C 
BRANCH  15  16
ATOM     16  C   UNL     1       2.617 -19.524 -40.872  1.00  0.00     0.057 C 
BRANCH  16  17
ATOM     17  C   UNL     1       1.331 -19.805 -40.079  1.00  0.00     0.088 C 
BRANCH  17  18
ATOM     18  N   UNL     1       0.059 -19.544 -40.763  1.00  0.00    -0.299 NA
ATOM     19  C   UNL     1       0.160 -18.555 -41.850  1.00  0.00     0.113 C 
ATOM     20  C   UNL     1      -0.604 -20.760 -41.264  1.00  0.00     0.113 C 
ATOM     21  C   UNL     1      -1.226 -18.262 -42.446  1.00  0.00     0.175 C 
ATOM     22  C   UNL     1      -1.973 -20.419 -41.875  1.00  0.00     0.175 C 
ATOM     23  O   UNL     1      -1.845 -19.461 -42.936  1.00  0.00    -0.379 OA
ENDBRANCH  17  18
ENDBRANCH  16  17
ENDBRANCH  15  16
ENDBRANCH  14  15
ENDBRANCH   5  14
ENDBRANCH   1   2
BRANCH   1  24
ATOM     24  C   UNL     1       8.465 -14.861 -43.339  1.00  0.00     0.163 A 
ATOM     25  C   UNL     1       9.193 -14.092 -44.246  1.00  0.00     0.052 A 
ATOM     26  C   UNL     1       7.431 -14.258 -42.624  1.00  0.00     0.167 A 
ATOM     27  C   UNL     1       8.886 -12.736 -44.423  1.00  0.00     0.030 A 
ATOM     28  C   UNL     1       7.127 -12.909 -42.790  1.00  0.00     0.069 A 
ATOM     29  C   UNL     1       7.851 -12.136 -43.702  1.00  0.00     0.044 A 
ATOM     30  F   UNL     1       6.716 -14.972 -41.742  1.00  0.00    -0.203 F 
BRANCH  29  31
ATOM     31  N   UNL     1       7.481 -10.785 -43.834  1.00  0.00    -0.325 N 
ATOM     32  C   UNL     1       6.320 -10.283 -44.385  1.00  0.00     0.240 C 
ATOM     33  O   UNL     1       5.371 -10.903 -44.841  1.00  0.00    -0.273 OA
ATOM     34  H   UNL     1       8.114 -10.098 -43.436  1.00  0.00     0.169 HD
BRANCH  32  35
ATOM     35  C   UNL     1       6.251  -8.787 -44.350  1.00  0.00     0.128 C 
ATOM     36  C   UNL     1       7.561  -8.001 -44.431  1.00  0.00     0.028 C 
ATOM     37  C   UNL     1       6.837  -8.083 -43.125  1.00  0.00     0.028 C 
BRANCH  35  38
ATOM     38  C   UNL     1       5.043  -8.186 -45.001  1.00  0.00     0.240 C 
ATOM     39  O   UNL     1       5.171  -7.642 -46.090  1.00  0.00    -0.274 OA
ATOM     40  N   UNL     1       3.897  -8.321 -44.246  1.00  0.00    -0.325 N 
ATOM     41  H   UNL     1       4.008  -8.778 -43.346  1.00  0.00     0.169 HD
BRANCH  40  42
ATOM     42  C   UNL     1       2.606  -7.849 -44.551  1.00  0.00     0.041 A 
ATOM     43  C   UNL     1       2.233  -6.503 -44.486  1.00  0.00     0.029 A 
ATOM     44  C   UNL     1       1.654  -8.800 -44.942  1.00  0.00     0.029 A 
ATOM     45  C   UNL     1       0.926  -6.116 -44.796  1.00  0.00     0.041 A 
ATOM     46  C   UNL     1       0.349  -8.413 -45.255  1.00  0.00     0.041 A 
ATOM     47  C   UNL     1      -0.004  -7.073 -45.176  1.00  0.00     0.123 A 
ATOM     48  F   UNL     1      -1.258  -6.702 -45.465  1.00  0.00    -0.207 F 
ENDBRANCH  40  42
ENDBRANCH  35  38
ENDBRANCH  32  35
ENDBRANCH  29  31
ENDBRANCH   1  24
TORSDOF 12
ENDMDL
MODEL 12
REMARK VINA RESULT:    -8.674      2.787      3.802
REMARK INTER + INTRA:         -15.833
REMARK INTER:                 -13.721
REMARK INTRA:                  -2.113
REMARK UNBOUND:                -1.075
REMARK SMILES COc1cc2c(Oc3ccc(NC(=O)C4(C(=O)Nc5ccc(F)cc5)CC4)cc3F)ccnc2cc1OCCCN1CCOCC1
REMARK SMILES IDX 7 1 6 2 3 3 4 4 36 5 5 6 35 7 34 8 31 9 33 10 32 11 2 12
REMARK SMILES IDX 1 13 37 14 38 15 39 16 40 17 41 18 42 19 46 20 43 21 45 22
REMARK SMILES IDX 44 23 8 24 9 25 29 26 10 27 28 28 11 29 30 30 12 31 13 32
REMARK SMILES IDX 14 33 15 35 26 36 27 37 16 38 17 39 18 40 19 42 20 43 25 44
REMARK SMILES IDX 21 45 24 46 22 47 23 48
REMARK H PARENT 12 34 18 41
ROOT
ATOM      1  O   UNL     1       7.971 -10.785 -44.802  1.00  0.00    -0.454 OA
ENDROOT
BRANCH   1   2
ATOM      2  C   UNL     1       7.094  -9.738 -44.627  1.00  0.00     0.138 A 
ATOM      3  C   UNL     1       3.761 -11.176 -45.598  1.00  0.00     0.161 A 
ATOM      4  C   UNL     1       5.133 -11.088 -45.360  1.00  0.00     0.064 A 
ATOM      5  C   UNL     1       2.952 -10.051 -45.365  1.00  0.00     0.163 A 
ATOM      6  C   UNL     1       5.717  -9.889 -44.893  1.00  0.00     0.047 A 
ATOM      7  C   UNL     1       3.538  -8.870 -44.901  1.00  0.00     0.079 A 
ATOM      8  C   UNL     1       4.901  -8.770 -44.653  1.00  0.00     0.078 A 
ATOM      9  C   UNL     1       7.593  -8.559 -44.084  1.00  0.00     0.068 A 
ATOM     10  N   UNL     1       5.387  -7.609 -44.177  1.00  0.00    -0.256 NA
ATOM     11  C   UNL     1       6.704  -7.527 -43.890  1.00  0.00     0.115 A 
BRANCH   3  12
ATOM     12  O   UNL     1       3.120 -12.303 -46.049  1.00  0.00    -0.493 OA
ATOM     13  C   UNL     1       3.670 -13.563 -45.694  1.00  0.00     0.278 C 
ENDBRANCH   3  12
BRANCH   5  14
ATOM     14  O   UNL     1       1.615 -10.221 -45.613  1.00  0.00    -0.490 OA
BRANCH  14  15
ATOM     15  C   UNL     1       0.649  -9.757 -44.675  1.00  0.00     0.231 C 
BRANCH  15  16
ATOM     16  C   UNL     1      -0.489 -10.762 -44.479  1.00  0.00     0.057 C 
BRANCH  16  17
ATOM     17  C   UNL     1      -0.463 -11.861 -45.552  1.00  0.00     0.088 C 
BRANCH  17  18
ATOM     18  N   UNL     1      -0.357 -13.247 -45.080  1.00  0.00    -0.299 NA
ATOM     19  C   UNL     1       0.082 -14.197 -46.117  1.00  0.00     0.113 C 
ATOM     20  C   UNL     1       0.485 -13.402 -43.881  1.00  0.00     0.113 C 
ATOM     21  C   UNL     1       0.068 -15.635 -45.573  1.00  0.00     0.175 C 
ATOM     22  C   UNL     1       0.464 -14.858 -43.389  1.00  0.00     0.175 C 
ATOM     23  O   UNL     1       0.904 -15.760 -44.413  1.00  0.00    -0.379 OA
ENDBRANCH  17  18
ENDBRANCH  16  17
ENDBRANCH  15  16
ENDBRANCH  14  15
ENDBRANCH   5  14
ENDBRANCH   1   2
BRANCH   1  24
ATOM     24  C   UNL     1       7.762 -11.912 -44.037  1.00  0.00     0.163 A 
ATOM     25  C   UNL     1       7.407 -11.892 -42.689  1.00  0.00     0.052 A 
ATOM     26  C   UNL     1       7.854 -13.139 -44.691  1.00  0.00     0.167 A 
ATOM     27  C   UNL     1       7.154 -13.093 -42.012  1.00  0.00     0.030 A 
ATOM     28  C   UNL     1       7.611 -14.336 -44.021  1.00  0.00     0.069 A 
ATOM     29  C   UNL     1       7.250 -14.321 -42.671  1.00  0.00     0.044 A 
ATOM     30  F   UNL     1       8.197 -13.188 -45.986  1.00  0.00    -0.203 F 
BRANCH  29  31
ATOM     31  N   UNL     1       7.002 -15.564 -42.059  1.00  0.00    -0.325 N 
ATOM     32  C   UNL     1       5.824 -16.281 -42.064  1.00  0.00     0.240 C 
ATOM     33  O   UNL     1       4.772 -16.002 -42.621  1.00  0.00    -0.273 OA
ATOM     34  H   UNL     1       7.790 -16.011 -41.601  1.00  0.00     0.169 HD
BRANCH  32  35
ATOM     35  C   UNL     1       5.921 -17.576 -41.318  1.00  0.00     0.128 C 
ATOM     36  C   UNL     1       7.195 -17.858 -40.520  1.00  0.00     0.028 C 
ATOM     37  C   UNL     1       6.958 -18.593 -41.800  1.00  0.00     0.028 C 
BRANCH  35  38
ATOM     38  C   UNL     1       4.629 -18.093 -40.762  1.00  0.00     0.240 C 
ATOM     39  O   UNL     1       4.484 -18.128 -39.547  1.00  0.00    -0.274 OA
ATOM     40  N   UNL     1       3.740 -18.492 -41.738  1.00  0.00    -0.325 N 
ATOM     41  H   UNL     1       4.067 -18.414 -42.696  1.00  0.00     0.169 HD
BRANCH  40  42
ATOM     42  C   UNL     1       2.458 -19.045 -41.560  1.00  0.00     0.041 A 
ATOM     43  C   UNL     1       1.294 -18.283 -41.413  1.00  0.00     0.029 A 
ATOM     44  C   UNL     1       2.363 -20.442 -41.532  1.00  0.00     0.029 A 
ATOM     45  C   UNL     1       0.058 -18.910 -41.230  1.00  0.00     0.041 A 
ATOM     46  C   UNL     1       1.127 -21.068 -41.352  1.00  0.00     0.041 A 
ATOM     47  C   UNL     1      -0.015 -20.295 -41.200  1.00  0.00     0.123 A 
ATOM     48  F   UNL     1      -1.199 -20.894 -41.016  1.00  0.00    -0.207 F 
ENDBRANCH  40  42
ENDBRANCH  35  38
ENDBRANCH  32  35
ENDBRANCH  29  31
ENDBRANCH   1  24
TORSDOF 12
ENDMDL
MODEL 13
REMARK VINA RESULT:    -8.595      4.650      8.108
REMARK INTER + INTRA:         -15.699
REMARK INTER:                 -14.547
REMARK INTRA:                  -1.152
REMARK UNBOUND:                -1.075
REMARK SMILES COc1cc2c(Oc3ccc(NC(=O)C4(C(=O)Nc5ccc(F)cc5)CC4)cc3F)ccnc2cc1OCCCN1CCOCC1
REMARK SMILES IDX 7 1 6 2 3 3 4 4 36 5 5 6 35 7 34 8 31 9 33 10 32 11 2 12
REMARK SMILES IDX 1 13 37 14 38 15 39 16 40 17 41 18 42 19 46 20 43 21 45 22
REMARK SMILES IDX 44 23 8 24 9 25 29 26 10 27 28 28 11 29 30 30 12 31 13 32
REMARK SMILES IDX 14 33 15 35 26 36 27 37 16 38 17 39 18 40 19 42 20 43 25 44
REMARK SMILES IDX 21 45 24 46 22 47 23 48
REMARK H PARENT 12 34 18 41
ROOT
ATOM      1  O   UNL     1       0.716 -19.446 -40.388  1.00  0.00    -0.454 OA
ENDROOT
BRANCH   1   2
ATOM      2  C   UNL     1      -0.308 -19.271 -41.293  1.00  0.00     0.138 A 
ATOM      3  C   UNL     1       0.574 -16.069 -43.052  1.00  0.00     0.161 A 
ATOM      4  C   UNL     1       0.653 -17.144 -42.165  1.00  0.00     0.064 A 
ATOM      5  C   UNL     1      -0.503 -16.000 -43.951  1.00  0.00     0.163 A 
ATOM      6  C   UNL     1      -0.333 -18.157 -42.158  1.00  0.00     0.047 A 
ATOM      7  C   UNL     1      -1.472 -17.008 -43.938  1.00  0.00     0.079 A 
ATOM      8  C   UNL     1      -1.403 -18.087 -43.066  1.00  0.00     0.078 A 
ATOM      9  C   UNL     1      -1.259 -20.279 -41.397  1.00  0.00     0.068 A 
ATOM     10  N   UNL     1      -2.357 -19.034 -43.135  1.00  0.00    -0.256 NA
ATOM     11  C   UNL     1      -2.264 -20.107 -42.321  1.00  0.00     0.115 A 
BRANCH   3  12
ATOM     12  O   UNL     1       1.490 -15.050 -43.121  1.00  0.00    -0.493 OA
ATOM     13  C   UNL     1       2.736 -15.321 -43.746  1.00  0.00     0.278 C 
ENDBRANCH   3  12
BRANCH   5  14
ATOM     14  O   UNL     1      -0.503 -14.920 -44.794  1.00  0.00    -0.490 OA
BRANCH  14  15
ATOM     15  C   UNL     1      -0.164 -15.085 -46.167  1.00  0.00     0.231 C 
BRANCH  15  16
ATOM     16  C   UNL     1       0.493 -13.831 -46.750  1.00  0.00     0.057 C 
BRANCH  16  17
ATOM     17  C   UNL     1      -0.454 -12.622 -46.701  1.00  0.00     0.088 C 
BRANCH  17  18
ATOM     18  N   UNL     1      -0.553 -11.908 -45.422  1.00  0.00    -0.299 NA
ATOM     19  C   UNL     1       0.745 -11.698 -44.756  1.00  0.00     0.113 C 
ATOM     20  C   UNL     1      -1.273 -10.626 -45.513  1.00  0.00     0.113 C 
ATOM     21  C   UNL     1       0.547 -11.039 -43.382  1.00  0.00     0.175 C 
ATOM     22  C   UNL     1      -1.424  -9.990 -44.122  1.00  0.00     0.175 C 
ATOM     23  O   UNL     1      -0.147  -9.788 -43.500  1.00  0.00    -0.379 OA
ENDBRANCH  17  18
ENDBRANCH  16  17
ENDBRANCH  15  16
ENDBRANCH  14  15
ENDBRANCH   5  14
ENDBRANCH   1   2
BRANCH   1  24
ATOM     24  C   UNL     1       1.944 -19.813 -40.894  1.00  0.00     0.163 A 
ATOM     25  C   UNL     1       2.131 -20.779 -41.880  1.00  0.00     0.052 A 
ATOM     26  C   UNL     1       3.051 -19.111 -40.420  1.00  0.00     0.167 A 
ATOM     27  C   UNL     1       3.417 -21.038 -42.375  1.00  0.00     0.030 A 
ATOM     28  C   UNL     1       4.332 -19.369 -40.904  1.00  0.00     0.069 A 
ATOM     29  C   UNL     1       4.524 -20.334 -41.895  1.00  0.00     0.044 A 
ATOM     30  F   UNL     1       2.901 -18.177 -39.469  1.00  0.00    -0.203 F 
BRANCH  29  31
ATOM     31  N   UNL     1       5.840 -20.533 -42.352  1.00  0.00    -0.325 N 
ATOM     32  C   UNL     1       6.574 -19.710 -43.180  1.00  0.00     0.240 C 
ATOM     33  O   UNL     1       6.246 -18.635 -43.661  1.00  0.00    -0.273 OA
ATOM     34  H   UNL     1       6.328 -21.349 -41.994  1.00  0.00     0.169 HD
BRANCH  32  35
ATOM     35  C   UNL     1       7.953 -20.228 -43.452  1.00  0.00     0.128 C 
ATOM     36  C   UNL     1       9.050 -19.220 -43.798  1.00  0.00     0.028 C 
ATOM     37  C   UNL     1       8.490 -20.089 -44.878  1.00  0.00     0.028 C 
BRANCH  35  38
ATOM     38  C   UNL     1       8.350 -21.437 -42.661  1.00  0.00     0.240 C 
ATOM     39  O   UNL     1       8.749 -21.284 -41.514  1.00  0.00    -0.274 OA
ATOM     40  N   UNL     1       8.221 -22.614 -43.368  1.00  0.00    -0.325 N 
ATOM     41  H   UNL     1       7.903 -22.523 -44.328  1.00  0.00     0.169 HD
BRANCH  40  42
ATOM     42  C   UNL     1       8.531 -23.917 -42.934  1.00  0.00     0.041 A 
ATOM     43  C   UNL     1       9.831 -24.426 -42.864  1.00  0.00     0.029 A 
ATOM     44  C   UNL     1       7.460 -24.735 -42.552  1.00  0.00     0.029 A 
ATOM     45  C   UNL     1      10.055 -25.736 -42.429  1.00  0.00     0.041 A 
ATOM     46  C   UNL     1       7.684 -26.043 -42.115  1.00  0.00     0.041 A 
ATOM     47  C   UNL     1       8.981 -26.533 -42.060  1.00  0.00     0.123 A 
ATOM     48  F   UNL     1       9.196 -27.790 -41.652  1.00  0.00    -0.207 F 
ENDBRANCH  40  42
ENDBRANCH  35  38
ENDBRANCH  32  35
ENDBRANCH  29  31
ENDBRANCH   1  24
TORSDOF 12
ENDMDL
MODEL 14
REMARK VINA RESULT:    -8.550      4.220     10.833
REMARK INTER + INTRA:         -15.623
REMARK INTER:                 -13.645
REMARK INTRA:                  -1.978
REMARK UNBOUND:                -1.075
REMARK SMILES COc1cc2c(Oc3ccc(NC(=O)C4(C(=O)Nc5ccc(F)cc5)CC4)cc3F)ccnc2cc1OCCCN1CCOCC1
REMARK SMILES IDX 7 1 6 2 3 3 4 4 36 5 5 6 35 7 34 8 31 9 33 10 32 11 2 12
REMARK SMILES IDX 1 13 37 14 38 15 39 16 40 17 41 18 42 19 46 20 43 21 45 22
REMARK SMILES IDX 44 23 8 24 9 25 29 26 10 27 28 28 11 29 30 30 12 31 13 32
REMARK SMILES IDX 14 33 15 35 26 36 27 37 16 38 17 39 18 40 19 42 20 43 25 44
REMARK SMILES IDX 21 45 24 46 22 47 23 48
REMARK H PARENT 12 34 18 41
ROOT
ATOM      1  O   UNL     1       8.279 -12.407 -42.868  1.00  0.00    -0.454 OA
ENDROOT
BRANCH   1   2
ATOM      2  C   UNL     1       8.776 -13.343 -43.749  1.00  0.00     0.138 A 
ATOM      3  C   UNL     1       6.283 -16.151 -43.587  1.00  0.00     0.161 A 
ATOM      4  C   UNL     1       6.904 -14.930 -43.319  1.00  0.00     0.064 A 
ATOM      5  C   UNL     1       6.863 -17.024 -44.522  1.00  0.00     0.163 A 
ATOM      6  C   UNL     1       8.103 -14.563 -43.970  1.00  0.00     0.047 A 
ATOM      7  C   UNL     1       8.049 -16.652 -45.163  1.00  0.00     0.079 A 
ATOM      8  C   UNL     1       8.674 -15.437 -44.912  1.00  0.00     0.078 A 
ATOM      9  C   UNL     1       9.903 -13.003 -44.488  1.00  0.00     0.068 A 
ATOM     10  N   UNL     1       9.796 -15.135 -45.592  1.00  0.00    -0.256 NA
ATOM     11  C   UNL     1      10.376 -13.934 -45.383  1.00  0.00     0.115 A 
BRANCH   3  12
ATOM     12  O   UNL     1       5.119 -16.577 -42.998  1.00  0.00    -0.493 OA
ATOM     13  C   UNL     1       3.951 -15.793 -43.197  1.00  0.00     0.278 C 
ENDBRANCH   3  12
BRANCH   5  14
ATOM     14  O   UNL     1       6.189 -18.197 -44.736  1.00  0.00    -0.490 OA
BRANCH  14  15
ATOM     15  C   UNL     1       6.908 -19.403 -44.975  1.00  0.00     0.231 C 
BRANCH  15  16
ATOM     16  C   UNL     1       6.373 -20.565 -44.134  1.00  0.00     0.057 C 
BRANCH  16  17
ATOM     17  C   UNL     1       6.955 -20.549 -42.712  1.00  0.00     0.088 C 
BRANCH  17  18
ATOM     18  N   UNL     1       6.064 -20.099 -41.637  1.00  0.00    -0.299 NA
ATOM     19  C   UNL     1       6.564 -18.924 -40.901  1.00  0.00     0.113 C 
ATOM     20  C   UNL     1       4.680 -19.850 -42.078  1.00  0.00     0.113 C 
ATOM     21  C   UNL     1       5.629 -18.580 -39.731  1.00  0.00     0.175 C 
ATOM     22  C   UNL     1       3.787 -19.483 -40.882  1.00  0.00     0.175 C 
ATOM     23  O   UNL     1       4.292 -18.332 -40.190  1.00  0.00    -0.379 OA
ENDBRANCH  17  18
ENDBRANCH  16  17
ENDBRANCH  15  16
ENDBRANCH  14  15
ENDBRANCH   5  14
ENDBRANCH   1   2
BRANCH   1  24
ATOM     24  C   UNL     1       7.495 -11.405 -43.395  1.00  0.00     0.163 A 
ATOM     25  C   UNL     1       6.771 -11.514 -44.581  1.00  0.00     0.052 A 
ATOM     26  C   UNL     1       7.381 -10.238 -42.641  1.00  0.00     0.167 A 
ATOM     27  C   UNL     1       5.951 -10.458 -45.003  1.00  0.00     0.030 A 
ATOM     28  C   UNL     1       6.573  -9.183 -43.060  1.00  0.00     0.069 A 
ATOM     29  C   UNL     1       5.842  -9.289 -44.246  1.00  0.00     0.044 A 
ATOM     30  F   UNL     1       8.068 -10.104 -41.498  1.00  0.00    -0.203 F 
BRANCH  29  31
ATOM     31  N   UNL     1       5.032  -8.194 -44.602  1.00  0.00    -0.325 N 
ATOM     32  C   UNL     1       3.749  -7.927 -44.173  1.00  0.00     0.240 C 
ATOM     33  O   UNL     1       3.068  -8.563 -43.383  1.00  0.00    -0.273 OA
ATOM     34  H   UNL     1       5.453  -7.493 -45.203  1.00  0.00     0.169 HD
BRANCH  32  35
ATOM     35  C   UNL     1       3.189  -6.661 -44.747  1.00  0.00     0.128 C 
ATOM     36  C   UNL     1       4.169  -5.572 -45.186  1.00  0.00     0.028 C 
ATOM     37  C   UNL     1       3.372  -5.377 -43.936  1.00  0.00     0.028 C 
BRANCH  35  38
ATOM     38  C   UNL     1       1.931  -6.821 -45.545  1.00  0.00     0.240 C 
ATOM     39  O   UNL     1       1.921  -6.446 -46.709  1.00  0.00    -0.274 OA
ATOM     40  N   UNL     1       0.899  -7.383 -44.821  1.00  0.00    -0.325 N 
ATOM     41  H   UNL     1       1.101  -7.593 -43.849  1.00  0.00     0.169 HD
BRANCH  40  42
ATOM     42  C   UNL     1      -0.414  -7.644 -45.257  1.00  0.00     0.041 A 
ATOM     43  C   UNL     1      -0.858  -8.901 -45.681  1.00  0.00     0.029 A 
ATOM     44  C   UNL     1      -1.313  -6.570 -45.257  1.00  0.00     0.029 A 
ATOM     45  C   UNL     1      -2.178  -9.076 -46.108  1.00  0.00     0.041 A 
ATOM     46  C   UNL     1      -2.632  -6.747 -45.682  1.00  0.00     0.041 A 
ATOM     47  C   UNL     1      -3.052  -7.999 -46.106  1.00  0.00     0.123 A 
ATOM     48  F   UNL     1      -4.314  -8.167 -46.524  1.00  0.00    -0.207 F 
ENDBRANCH  40  42
ENDBRANCH  35  38
ENDBRANCH  32  35
ENDBRANCH  29  31
ENDBRANCH   1  24
TORSDOF 12
ENDMDL
MODEL 15
REMARK VINA RESULT:    -8.541      2.533      3.364
REMARK INTER + INTRA:         -15.607
REMARK INTER:                 -14.222
REMARK INTRA:                  -1.385
REMARK UNBOUND:                -1.075
REMARK SMILES COc1cc2c(Oc3ccc(NC(=O)C4(C(=O)Nc5ccc(F)cc5)CC4)cc3F)ccnc2cc1OCCCN1CCOCC1
REMARK SMILES IDX 7 1 6 2 3 3 4 4 36 5 5 6 35 7 34 8 31 9 33 10 32 11 2 12
REMARK SMILES IDX 1 13 37 14 38 15 39 16 40 17 41 18 42 19 46 20 43 21 45 22
REMARK SMILES IDX 44 23 8 24 9 25 29 26 10 27 28 28 11 29 30 30 12 31 13 32
REMARK SMILES IDX 14 33 15 35 26 36 27 37 16 38 17 39 18 40 19 42 20 43 25 44
REMARK SMILES IDX 21 45 24 46 22 47 23 48
REMARK H PARENT 12 34 18 41
ROOT
ATOM      1  O   UNL     1       6.998 -11.444 -45.744  1.00  0.00    -0.454 OA
ENDROOT
BRANCH   1   2
ATOM      2  C   UNL     1       6.607 -10.294 -45.094  1.00  0.00     0.138 A 
ATOM      3  C   UNL     1       2.874 -10.238 -45.515  1.00  0.00     0.161 A 
ATOM      4  C   UNL     1       4.200 -10.659 -45.620  1.00  0.00     0.064 A 
ATOM      5  C   UNL     1       2.583  -9.058 -44.810  1.00  0.00     0.163 A 
ATOM      6  C   UNL     1       5.249  -9.919 -45.031  1.00  0.00     0.047 A 
ATOM      7  C   UNL     1       3.628  -8.332 -44.229  1.00  0.00     0.079 A 
ATOM      8  C   UNL     1       4.952  -8.744 -44.319  1.00  0.00     0.078 A 
ATOM      9  C   UNL     1       7.583  -9.570 -44.418  1.00  0.00     0.068 A 
ATOM     10  N   UNL     1       5.899  -8.009 -43.706  1.00  0.00    -0.256 NA
ATOM     11  C   UNL     1       7.179  -8.436 -43.752  1.00  0.00     0.115 A 
BRANCH   3  12
ATOM     12  O   UNL     1       1.802 -10.901 -46.057  1.00  0.00    -0.493 OA
ATOM     13  C   UNL     1       1.552 -12.227 -45.614  1.00  0.00     0.278 C 
ENDBRANCH   3  12
BRANCH   5  14
ATOM     14  O   UNL     1       1.258  -8.717 -44.745  1.00  0.00    -0.490 OA
BRANCH  14  15
ATOM     15  C   UNL     1       0.861  -7.357 -44.891  1.00  0.00     0.231 C 
BRANCH  15  16
ATOM     16  C   UNL     1      -0.660  -7.194 -44.834  1.00  0.00     0.057 C 
BRANCH  16  17
ATOM     17  C   UNL     1      -1.329  -8.382 -44.125  1.00  0.00     0.088 C 
BRANCH  17  18
ATOM     18  N   UNL     1      -2.780  -8.301 -43.923  1.00  0.00    -0.299 NA
ATOM     19  C   UNL     1      -3.336  -9.420 -43.141  1.00  0.00     0.113 C 
ATOM     20  C   UNL     1      -3.227  -7.024 -43.340  1.00  0.00     0.113 C 
ATOM     21  C   UNL     1      -4.867  -9.317 -43.061  1.00  0.00     0.175 C 
ATOM     22  C   UNL     1      -4.761  -6.975 -43.253  1.00  0.00     0.175 C 
ATOM     23  O   UNL     1      -5.274  -8.068 -42.480  1.00  0.00    -0.379 OA
ENDBRANCH  17  18
ENDBRANCH  16  17
ENDBRANCH  15  16
ENDBRANCH  14  15
ENDBRANCH   5  14
ENDBRANCH   1   2
BRANCH   1  24
ATOM     24  C   UNL     1       7.070 -12.595 -44.990  1.00  0.00     0.163 A 
ATOM     25  C   UNL     1       5.971 -13.377 -44.640  1.00  0.00     0.052 A 
ATOM     26  C   UNL     1       8.345 -13.021 -44.619  1.00  0.00     0.167 A 
ATOM     27  C   UNL     1       6.156 -14.567 -43.921  1.00  0.00     0.030 A 
ATOM     28  C   UNL     1       8.533 -14.198 -43.899  1.00  0.00     0.069 A 
ATOM     29  C   UNL     1       7.435 -14.988 -43.549  1.00  0.00     0.044 A 
ATOM     30  F   UNL     1       9.421 -12.287 -44.939  1.00  0.00    -0.203 F 
BRANCH  29  31
ATOM     31  N   UNL     1       7.696 -16.173 -42.837  1.00  0.00    -0.325 N 
ATOM     32  C   UNL     1       7.561 -17.470 -43.287  1.00  0.00     0.240 C 
ATOM     33  O   UNL     1       7.217 -17.852 -44.396  1.00  0.00    -0.273 OA
ATOM     34  H   UNL     1       8.075 -16.067 -41.900  1.00  0.00     0.169 HD
BRANCH  32  35
ATOM     35  C   UNL     1       7.941 -18.491 -42.260  1.00  0.00     0.128 C 
ATOM     36  C   UNL     1       9.312 -18.371 -41.593  1.00  0.00     0.028 C 
ATOM     37  C   UNL     1       9.085 -19.447 -42.605  1.00  0.00     0.028 C 
BRANCH  35  38
ATOM     38  C   UNL     1       6.810 -19.013 -41.427  1.00  0.00     0.240 C 
ATOM     39  O   UNL     1       7.059 -19.478 -40.323  1.00  0.00    -0.274 OA
ATOM     40  N   UNL     1       5.584 -18.907 -42.050  1.00  0.00    -0.325 N 
ATOM     41  H   UNL     1       5.595 -18.521 -42.989  1.00  0.00     0.169 HD
BRANCH  40  42
ATOM     42  C   UNL     1       4.332 -19.324 -41.560  1.00  0.00     0.041 A 
ATOM     43  C   UNL     1       3.657 -20.461 -42.014  1.00  0.00     0.029 A 
ATOM     44  C   UNL     1       3.745 -18.540 -40.559  1.00  0.00     0.029 A 
ATOM     45  C   UNL     1       2.410 -20.803 -41.481  1.00  0.00     0.041 A 
ATOM     46  C   UNL     1       2.500 -18.883 -40.025  1.00  0.00     0.041 A 
ATOM     47  C   UNL     1       1.842 -20.011 -40.494  1.00  0.00     0.123 A 
ATOM     48  F   UNL     1       0.644 -20.334 -39.991  1.00  0.00    -0.207 F 
ENDBRANCH  40  42
ENDBRANCH  35  38
ENDBRANCH  32  35
ENDBRANCH  29  31
ENDBRANCH   1  24
TORSDOF 12
ENDMDL
MODEL 16
REMARK VINA RESULT:    -8.509      4.058     10.952
REMARK INTER + INTRA:         -15.554
REMARK INTER:                 -13.573
REMARK INTRA:                  -1.981
REMARK UNBOUND:                -1.075
REMARK SMILES COc1cc2c(Oc3ccc(NC(=O)C4(C(=O)Nc5ccc(F)cc5)CC4)cc3F)ccnc2cc1OCCCN1CCOCC1
REMARK SMILES IDX 7 1 6 2 3 3 4 4 36 5 5 6 35 7 34 8 31 9 33 10 32 11 2 12
REMARK SMILES IDX 1 13 37 14 38 15 39 16 40 17 41 18 42 19 46 20 43 21 45 22
REMARK SMILES IDX 44 23 8 24 9 25 29 26 10 27 28 28 11 29 30 30 12 31 13 32
REMARK SMILES IDX 14 33 15 35 26 36 27 37 16 38 17 39 18 40 19 42 20 43 25 44
REMARK SMILES IDX 21 45 24 46 22 47 23 48
REMARK H PARENT 12 34 18 41
ROOT
ATOM      1  O   UNL     1       7.781 -11.394 -44.554  1.00  0.00    -0.454 OA
ENDROOT
BRANCH   1   2
ATOM      2  C   UNL     1       7.798 -12.276 -43.495  1.00  0.00     0.138 A 
ATOM      3  C   UNL     1       7.395 -15.643 -45.115  1.00  0.00     0.161 A 
ATOM      4  C   UNL     1       7.507 -14.259 -44.975  1.00  0.00     0.064 A 
ATOM      5  C   UNL     1       7.447 -16.454 -43.969  1.00  0.00     0.163 A 
ATOM      6  C   UNL     1       7.671 -13.665 -43.703  1.00  0.00     0.047 A 
ATOM      7  C   UNL     1       7.610 -15.858 -42.715  1.00  0.00     0.079 A 
ATOM      8  C   UNL     1       7.732 -14.482 -42.561  1.00  0.00     0.078 A 
ATOM      9  C   UNL     1       8.046 -11.761 -42.228  1.00  0.00     0.068 A 
ATOM     10  N   UNL     1       7.919 -13.985 -41.324  1.00  0.00    -0.256 NA
ATOM     11  C   UNL     1       8.085 -12.653 -41.181  1.00  0.00     0.115 A 
BRANCH   3  12
ATOM     12  O   UNL     1       7.237 -16.293 -46.313  1.00  0.00    -0.493 OA
ATOM     13  C   UNL     1       6.065 -16.016 -47.066  1.00  0.00     0.278 C 
ENDBRANCH   3  12
BRANCH   5  14
ATOM     14  O   UNL     1       7.339 -17.801 -44.191  1.00  0.00    -0.490 OA
BRANCH  14  15
ATOM     15  C   UNL     1       8.485 -18.639 -44.083  1.00  0.00     0.231 C 
BRANCH  15  16
ATOM     16  C   UNL     1       8.363 -19.632 -42.924  1.00  0.00     0.057 C 
BRANCH  16  17
ATOM     17  C   UNL     1       6.923 -20.144 -42.768  1.00  0.00     0.088 C 
BRANCH  17  18
ATOM     18  N   UNL     1       6.215 -19.768 -41.539  1.00  0.00    -0.299 NA
ATOM     19  C   UNL     1       7.026 -18.965 -40.606  1.00  0.00     0.113 C 
ATOM     20  C   UNL     1       4.928 -19.092 -41.779  1.00  0.00     0.113 C 
ATOM     21  C   UNL     1       6.251 -18.701 -39.305  1.00  0.00     0.175 C 
ATOM     22  C   UNL     1       4.201 -18.824 -40.451  1.00  0.00     0.175 C 
ATOM     23  O   UNL     1       5.008 -18.033 -39.567  1.00  0.00    -0.379 OA
ENDBRANCH  17  18
ENDBRANCH  16  17
ENDBRANCH  15  16
ENDBRANCH  14  15
ENDBRANCH   5  14
ENDBRANCH   1   2
BRANCH   1  24
ATOM     24  C   UNL     1       6.649 -10.623 -44.708  1.00  0.00     0.163 A 
ATOM     25  C   UNL     1       5.453 -11.081 -45.258  1.00  0.00     0.052 A 
ATOM     26  C   UNL     1       6.707  -9.320 -44.213  1.00  0.00     0.167 A 
ATOM     27  C   UNL     1       4.336 -10.236 -45.314  1.00  0.00     0.030 A 
ATOM     28  C   UNL     1       5.603  -8.474 -44.273  1.00  0.00     0.069 A 
ATOM     29  C   UNL     1       4.400  -8.931 -44.820  1.00  0.00     0.044 A 
ATOM     30  F   UNL     1       7.846  -8.852 -43.682  1.00  0.00    -0.203 F 
BRANCH  29  31
ATOM     31  N   UNL     1       3.319  -8.031 -44.834  1.00  0.00    -0.325 N 
ATOM     32  C   UNL     1       2.779  -7.385 -45.928  1.00  0.00     0.240 C 
ATOM     33  O   UNL     1       3.108  -7.484 -47.101  1.00  0.00    -0.273 OA
ATOM     34  H   UNL     1       2.846  -7.872 -43.949  1.00  0.00     0.169 HD
BRANCH  32  35
ATOM     35  C   UNL     1       1.620  -6.504 -45.577  1.00  0.00     0.128 C 
ATOM     36  C   UNL     1       1.391  -5.244 -46.413  1.00  0.00     0.028 C 
ATOM     37  C   UNL     1       1.934  -5.111 -45.026  1.00  0.00     0.028 C 
BRANCH  35  38
ATOM     38  C   UNL     1       0.410  -7.215 -45.053  1.00  0.00     0.240 C 
ATOM     39  O   UNL     1       0.567  -8.186 -44.325  1.00  0.00    -0.274 OA
ATOM     40  N   UNL     1      -0.775  -6.663 -45.492  1.00  0.00    -0.325 N 
ATOM     41  H   UNL     1      -0.691  -5.873 -46.125  1.00  0.00     0.169 HD
BRANCH  40  42
ATOM     42  C   UNL     1      -2.084  -7.100 -45.212  1.00  0.00     0.041 A 
ATOM     43  C   UNL     1      -2.911  -7.732 -46.145  1.00  0.00     0.029 A 
ATOM     44  C   UNL     1      -2.566  -6.882 -43.915  1.00  0.00     0.029 A 
ATOM     45  C   UNL     1      -4.203  -8.130 -45.790  1.00  0.00     0.041 A 
ATOM     46  C   UNL     1      -3.857  -7.281 -43.559  1.00  0.00     0.041 A 
ATOM     47  C   UNL     1      -4.666  -7.900 -44.502  1.00  0.00     0.123 A 
ATOM     48  F   UNL     1      -5.907  -8.273 -44.166  1.00  0.00    -0.207 F 
ENDBRANCH  40  42
ENDBRANCH  35  38
ENDBRANCH  32  35
ENDBRANCH  29  31
ENDBRANCH   1  24
TORSDOF 12
ENDMDL
MODEL 17
REMARK VINA RESULT:    -8.504      4.940     10.561
REMARK INTER + INTRA:         -15.544
REMARK INTER:                 -13.992
REMARK INTRA:                  -1.552
REMARK UNBOUND:                -1.075
REMARK SMILES COc1cc2c(Oc3ccc(NC(=O)C4(C(=O)Nc5ccc(F)cc5)CC4)cc3F)ccnc2cc1OCCCN1CCOCC1
REMARK SMILES IDX 7 1 6 2 3 3 4 4 36 5 5 6 35 7 34 8 31 9 33 10 32 11 2 12
REMARK SMILES IDX 1 13 37 14 38 15 39 16 40 17 41 18 42 19 46 20 43 21 45 22
REMARK SMILES IDX 44 23 8 24 9 25 29 26 10 27 28 28 11 29 30 30 12 31 13 32
REMARK SMILES IDX 14 33 15 35 26 36 27 37 16 38 17 39 18 40 19 42 20 43 25 44
REMARK SMILES IDX 21 45 24 46 22 47 23 48
REMARK H PARENT 12 34 18 41
ROOT
ATOM      1  O   UNL     1       8.548 -12.401 -44.261  1.00  0.00    -0.454 OA
ENDROOT
BRANCH   1   2
ATOM      2  C   UNL     1       8.951 -12.829 -43.015  1.00  0.00     0.138 A 
ATOM      3  C   UNL     1      12.058 -14.827 -43.706  1.00  0.00     0.161 A 
ATOM      4  C   UNL     1      10.922 -14.048 -43.930  1.00  0.00     0.064 A 
ATOM      5  C   UNL     1      12.391 -15.191 -42.391  1.00  0.00     0.163 A 
ATOM      6  C   UNL     1      10.106 -13.623 -42.857  1.00  0.00     0.047 A 
ATOM      7  C   UNL     1      11.579 -14.765 -41.335  1.00  0.00     0.079 A 
ATOM      8  C   UNL     1      10.449 -13.982 -41.542  1.00  0.00     0.078 A 
ATOM      9  C   UNL     1       8.241 -12.370 -41.912  1.00  0.00     0.068 A 
ATOM     10  N   UNL     1       9.735 -13.585 -40.473  1.00  0.00    -0.256 NA
ATOM     11  C   UNL     1       8.666 -12.784 -40.671  1.00  0.00     0.115 A 
BRANCH   3  12
ATOM     12  O   UNL     1      12.900 -15.275 -44.692  1.00  0.00    -0.493 OA
ATOM     13  C   UNL     1      12.341 -16.070 -45.728  1.00  0.00     0.278 C 
ENDBRANCH   3  12
BRANCH   5  14
ATOM     14  O   UNL     1      13.525 -15.948 -42.253  1.00  0.00    -0.490 OA
BRANCH  14  15
ATOM     15  C   UNL     1      13.429 -17.364 -42.137  1.00  0.00     0.231 C 
BRANCH  15  16
ATOM     16  C   UNL     1      12.618 -17.785 -40.909  1.00  0.00     0.057 C 
BRANCH  16  17
ATOM     17  C   UNL     1      12.922 -19.235 -40.500  1.00  0.00     0.088 C 
BRANCH  17  18
ATOM     18  N   UNL     1      11.817 -20.195 -40.594  1.00  0.00    -0.299 NA
ATOM     19  C   UNL     1      11.768 -21.158 -39.480  1.00  0.00     0.113 C 
ATOM     20  C   UNL     1      10.495 -19.565 -40.757  1.00  0.00     0.113 C 
ATOM     21  C   UNL     1      10.651 -22.190 -39.703  1.00  0.00     0.175 C 
ATOM     22  C   UNL     1       9.405 -20.632 -40.950  1.00  0.00     0.175 C 
ATOM     23  O   UNL     1       9.374 -21.550 -39.848  1.00  0.00    -0.379 OA
ENDBRANCH  17  18
ENDBRANCH  16  17
ENDBRANCH  15  16
ENDBRANCH  14  15
ENDBRANCH   5  14
ENDBRANCH   1   2
BRANCH   1  24
ATOM     24  C   UNL     1       7.301 -12.802 -44.688  1.00  0.00     0.163 A 
ATOM     25  C   UNL     1       6.924 -14.130 -44.880  1.00  0.00     0.052 A 
ATOM     26  C   UNL     1       6.350 -11.799 -44.871  1.00  0.00     0.167 A 
ATOM     27  C   UNL     1       5.610 -14.440 -45.256  1.00  0.00     0.030 A 
ATOM     28  C   UNL     1       5.045 -12.101 -45.252  1.00  0.00     0.069 A 
ATOM     29  C   UNL     1       4.661 -13.431 -45.441  1.00  0.00     0.044 A 
ATOM     30  F   UNL     1       6.685 -10.512 -44.697  1.00  0.00    -0.203 F 
BRANCH  29  31
ATOM     31  N   UNL     1       3.323 -13.668 -45.809  1.00  0.00    -0.325 N 
ATOM     32  C   UNL     1       2.205 -13.584 -45.006  1.00  0.00     0.240 C 
ATOM     33  O   UNL     1       2.143 -13.262 -43.829  1.00  0.00    -0.273 OA
ATOM     34  H   UNL     1       3.150 -13.877 -46.788  1.00  0.00     0.169 HD
BRANCH  32  35
ATOM     35  C   UNL     1       0.933 -13.893 -45.735  1.00  0.00     0.128 C 
ATOM     36  C   UNL     1       0.757 -13.336 -47.148  1.00  0.00     0.028 C 
ATOM     37  C   UNL     1      -0.015 -12.728 -46.022  1.00  0.00     0.028 C 
BRANCH  35  38
ATOM     38  C   UNL     1       0.337 -15.235 -45.441  1.00  0.00     0.240 C 
ATOM     39  O   UNL     1       0.230 -16.044 -46.353  1.00  0.00    -0.274 OA
ATOM     40  N   UNL     1      -0.042 -15.383 -44.123  1.00  0.00    -0.325 N 
ATOM     41  H   UNL     1       0.100 -14.574 -43.526  1.00  0.00     0.169 HD
BRANCH  40  42
ATOM     42  C   UNL     1      -0.654 -16.500 -43.524  1.00  0.00     0.041 A 
ATOM     43  C   UNL     1      -1.978 -16.885 -43.763  1.00  0.00     0.029 A 
ATOM     44  C   UNL     1       0.125 -17.260 -42.643  1.00  0.00     0.029 A 
ATOM     45  C   UNL     1      -2.515 -18.004 -43.121  1.00  0.00     0.041 A 
ATOM     46  C   UNL     1      -0.411 -18.381 -42.004  1.00  0.00     0.041 A 
ATOM     47  C   UNL     1      -1.729 -18.741 -42.247  1.00  0.00     0.123 A 
ATOM     48  F   UNL     1      -2.248 -19.809 -41.626  1.00  0.00    -0.207 F 
ENDBRANCH  40  42
ENDBRANCH  35  38
ENDBRANCH  32  35
ENDBRANCH  29  31
ENDBRANCH   1  24
TORSDOF 12
ENDMDL
MODEL 18
REMARK VINA RESULT:    -8.475      2.716      6.672
REMARK INTER + INTRA:         -15.495
REMARK INTER:                 -14.083
REMARK INTRA:                  -1.412
REMARK UNBOUND:                -1.075
REMARK SMILES COc1cc2c(Oc3ccc(NC(=O)C4(C(=O)Nc5ccc(F)cc5)CC4)cc3F)ccnc2cc1OCCCN1CCOCC1
REMARK SMILES IDX 7 1 6 2 3 3 4 4 36 5 5 6 35 7 34 8 31 9 33 10 32 11 2 12
REMARK SMILES IDX 1 13 37 14 38 15 39 16 40 17 41 18 42 19 46 20 43 21 45 22
REMARK SMILES IDX 44 23 8 24 9 25 29 26 10 27 28 28 11 29 30 30 12 31 13 32
REMARK SMILES IDX 14 33 15 35 26 36 27 37 16 38 17 39 18 40 19 42 20 43 25 44
REMARK SMILES IDX 21 45 24 46 22 47 23 48
REMARK H PARENT 12 34 18 41
ROOT
ATOM      1  O   UNL     1      -1.342 -11.446 -45.686  1.00  0.00    -0.454 OA
ENDROOT
BRANCH   1   2
ATOM      2  C   UNL     1      -1.681 -10.209 -45.183  1.00  0.00     0.138 A 
ATOM      3  C   UNL     1       1.427  -8.153 -45.667  1.00  0.00     0.161 A 
ATOM      4  C   UNL     1       0.563  -9.248 -45.683  1.00  0.00     0.064 A 
ATOM      5  C   UNL     1       0.972  -6.928 -45.151  1.00  0.00     0.163 A 
ATOM      6  C   UNL     1      -0.757  -9.143 -45.188  1.00  0.00     0.047 A 
ATOM      7  C   UNL     1      -0.336  -6.833 -44.665  1.00  0.00     0.079 A 
ATOM      8  C   UNL     1      -1.210  -7.913 -44.681  1.00  0.00     0.078 A 
ATOM      9  C   UNL     1      -2.992 -10.017 -44.765  1.00  0.00     0.068 A 
ATOM     10  N   UNL     1      -2.463  -7.735 -44.226  1.00  0.00    -0.256 NA
ATOM     11  C   UNL     1      -3.327  -8.771 -44.287  1.00  0.00     0.115 A 
BRANCH   3  12
ATOM     12  O   UNL     1       2.719  -8.175 -46.130  1.00  0.00    -0.493 OA
ATOM     13  C   UNL     1       3.424  -9.405 -46.064  1.00  0.00     0.278 C 
ENDBRANCH   3  12
BRANCH   5  14
ATOM     14  O   UNL     1       1.877  -5.900 -45.178  1.00  0.00    -0.490 OA
BRANCH  14  15
ATOM     15  C   UNL     1       2.369  -5.346 -43.962  1.00  0.00     0.231 C 
BRANCH  15  16
ATOM     16  C   UNL     1       3.572  -6.124 -43.423  1.00  0.00     0.057 C 
BRANCH  16  17
ATOM     17  C   UNL     1       4.753  -6.090 -44.406  1.00  0.00     0.088 C 
BRANCH  17  18
ATOM     18  N   UNL     1       5.911  -6.931 -44.081  1.00  0.00    -0.299 NA
ATOM     19  C   UNL     1       5.645  -7.930 -43.030  1.00  0.00     0.113 C 
ATOM     20  C   UNL     1       6.508  -7.596 -45.252  1.00  0.00     0.113 C 
ATOM     21  C   UNL     1       6.928  -8.698 -42.676  1.00  0.00     0.175 C 
ATOM     22  C   UNL     1       7.772  -8.373 -44.848  1.00  0.00     0.175 C 
ATOM     23  O   UNL     1       7.483  -9.344 -43.831  1.00  0.00    -0.379 OA
ENDBRANCH  17  18
ENDBRANCH  16  17
ENDBRANCH  15  16
ENDBRANCH  14  15
ENDBRANCH   5  14
ENDBRANCH   1   2
BRANCH   1  24
ATOM     24  C   UNL     1      -0.248 -12.070 -45.128  1.00  0.00     0.163 A 
ATOM     25  C   UNL     1      -0.013 -12.170 -43.757  1.00  0.00     0.052 A 
ATOM     26  C   UNL     1       0.635 -12.693 -46.009  1.00  0.00     0.167 A 
ATOM     27  C   UNL     1       1.099 -12.881 -43.285  1.00  0.00     0.030 A 
ATOM     28  C   UNL     1       1.745 -13.395 -45.546  1.00  0.00     0.069 A 
ATOM     29  C   UNL     1       1.982 -13.501 -44.173  1.00  0.00     0.044 A 
ATOM     30  F   UNL     1       0.435 -12.611 -47.333  1.00  0.00    -0.203 F 
BRANCH  29  31
ATOM     31  N   UNL     1       3.112 -14.238 -43.772  1.00  0.00    -0.325 N 
ATOM     32  C   UNL     1       4.427 -13.822 -43.769  1.00  0.00     0.240 C 
ATOM     33  O   UNL     1       4.875 -12.729 -44.084  1.00  0.00    -0.273 OA
ATOM     34  H   UNL     1       2.941 -15.165 -43.394  1.00  0.00     0.169 HD
BRANCH  32  35
ATOM     35  C   UNL     1       5.373 -14.868 -43.263  1.00  0.00     0.128 C 
ATOM     36  C   UNL     1       6.382 -14.470 -42.184  1.00  0.00     0.028 C 
ATOM     37  C   UNL     1       6.858 -14.690 -43.584  1.00  0.00     0.028 C 
BRANCH  35  38
ATOM     38  C   UNL     1       4.822 -16.260 -43.214  1.00  0.00     0.240 C 
ATOM     39  O   UNL     1       4.868 -16.947 -44.226  1.00  0.00    -0.274 OA
ATOM     40  N   UNL     1       4.300 -16.593 -41.982  1.00  0.00    -0.325 N 
ATOM     41  H   UNL     1       4.326 -15.863 -41.276  1.00  0.00     0.169 HD
BRANCH  40  42
ATOM     42  C   UNL     1       3.685 -17.802 -41.606  1.00  0.00     0.041 A 
ATOM     43  C   UNL     1       4.357 -19.026 -41.526  1.00  0.00     0.029 A 
ATOM     44  C   UNL     1       2.319 -17.756 -41.297  1.00  0.00     0.029 A 
ATOM     45  C   UNL     1       3.672 -20.186 -41.154  1.00  0.00     0.041 A 
ATOM     46  C   UNL     1       1.635 -18.915 -40.923  1.00  0.00     0.041 A 
ATOM     47  C   UNL     1       2.318 -20.122 -40.857  1.00  0.00     0.123 A 
ATOM     48  F   UNL     1       1.661 -21.235 -40.508  1.00  0.00    -0.207 F 
ENDBRANCH  40  42
ENDBRANCH  35  38
ENDBRANCH  32  35
ENDBRANCH  29  31
ENDBRANCH   1  24
TORSDOF 12
ENDMDL
MODEL 19
REMARK VINA RESULT:    -8.415      4.667      9.754
REMARK INTER + INTRA:         -15.394
REMARK INTER:                 -12.650
REMARK INTRA:                  -2.744
REMARK UNBOUND:                -1.075
REMARK SMILES COc1cc2c(Oc3ccc(NC(=O)C4(C(=O)Nc5ccc(F)cc5)CC4)cc3F)ccnc2cc1OCCCN1CCOCC1
REMARK SMILES IDX 7 1 6 2 3 3 4 4 36 5 5 6 35 7 34 8 31 9 33 10 32 11 2 12
REMARK SMILES IDX 1 13 37 14 38 15 39 16 40 17 41 18 42 19 46 20 43 21 45 22
REMARK SMILES IDX 44 23 8 24 9 25 29 26 10 27 28 28 11 29 30 30 12 31 13 32
REMARK SMILES IDX 14 33 15 35 26 36 27 37 16 38 17 39 18 40 19 42 20 43 25 44
REMARK SMILES IDX 21 45 24 46 22 47 23 48
REMARK H PARENT 12 34 18 41
ROOT
ATOM      1  O   UNL     1       7.538 -18.451 -41.423  1.00  0.00    -0.454 OA
ENDROOT
BRANCH   1   2
ATOM      2  C   UNL     1       8.288 -19.002 -42.439  1.00  0.00     0.138 A 
ATOM      3  C   UNL     1      11.178 -16.630 -42.819  1.00  0.00     0.161 A 
ATOM      4  C   UNL     1       9.988 -17.183 -42.344  1.00  0.00     0.064 A 
ATOM      5  C   UNL     1      11.877 -17.287 -43.845  1.00  0.00     0.163 A 
ATOM      6  C   UNL     1       9.479 -18.388 -42.879  1.00  0.00     0.047 A 
ATOM      7  C   UNL     1      11.367 -18.479 -44.368  1.00  0.00     0.079 A 
ATOM      8  C   UNL     1      10.188 -19.046 -43.900  1.00  0.00     0.078 A 
ATOM      9  C   UNL     1       7.888 -20.234 -42.945  1.00  0.00     0.068 A 
ATOM     10  N   UNL     1       9.777 -20.212 -44.431  1.00  0.00    -0.256 NA
ATOM     11  C   UNL     1       8.658 -20.787 -43.942  1.00  0.00     0.115 A 
BRANCH   3  12
ATOM     12  O   UNL     1      11.736 -15.468 -42.350  1.00  0.00    -0.493 OA
ATOM     13  C   UNL     1      12.385 -15.507 -41.088  1.00  0.00     0.278 C 
ENDBRANCH   3  12
BRANCH   5  14
ATOM     14  O   UNL     1      13.040 -16.685 -44.250  1.00  0.00    -0.490 OA
BRANCH  14  15
ATOM     15  C   UNL     1      13.297 -16.486 -45.636  1.00  0.00     0.231 C 
BRANCH  15  16
ATOM     16  C   UNL     1      12.898 -15.082 -46.098  1.00  0.00     0.057 C 
BRANCH  16  17
ATOM     17  C   UNL     1      11.642 -15.113 -46.982  1.00  0.00     0.088 C 
BRANCH  17  18
ATOM     18  N   UNL     1      10.392 -14.640 -46.375  1.00  0.00    -0.299 NA
ATOM     19  C   UNL     1       9.444 -15.720 -46.046  1.00  0.00     0.113 C 
ATOM     20  C   UNL     1      10.593 -13.785 -45.193  1.00  0.00     0.113 C 
ATOM     21  C   UNL     1       8.125 -15.138 -45.513  1.00  0.00     0.175 C 
ATOM     22  C   UNL     1       9.249 -13.248 -44.677  1.00  0.00     0.175 C 
ATOM     23  O   UNL     1       8.349 -14.318 -44.356  1.00  0.00    -0.379 OA
ENDBRANCH  17  18
ENDBRANCH  16  17
ENDBRANCH  15  16
ENDBRANCH  14  15
ENDBRANCH   5  14
ENDBRANCH   1   2
BRANCH   1  24
ATOM     24  C   UNL     1       6.410 -17.748 -41.788  1.00  0.00     0.163 A 
ATOM     25  C   UNL     1       6.427 -16.481 -42.368  1.00  0.00     0.052 A 
ATOM     26  C   UNL     1       5.187 -18.395 -41.617  1.00  0.00     0.167 A 
ATOM     27  C   UNL     1       5.227 -15.873 -42.763  1.00  0.00     0.030 A 
ATOM     28  C   UNL     1       3.991 -17.792 -42.000  1.00  0.00     0.069 A 
ATOM     29  C   UNL     1       4.003 -16.524 -42.586  1.00  0.00     0.044 A 
ATOM     30  F   UNL     1       5.141 -19.613 -41.058  1.00  0.00    -0.203 F 
BRANCH  29  31
ATOM     31  N   UNL     1       2.762 -15.980 -42.966  1.00  0.00    -0.325 N 
ATOM     32  C   UNL     1       2.396 -15.516 -44.212  1.00  0.00     0.240 C 
ATOM     33  O   UNL     1       3.057 -15.509 -45.240  1.00  0.00    -0.273 OA
ATOM     34  H   UNL     1       2.033 -15.971 -42.259  1.00  0.00     0.169 HD
BRANCH  32  35
ATOM     35  C   UNL     1       0.985 -15.014 -44.262  1.00  0.00     0.128 C 
ATOM     36  C   UNL     1       0.426 -14.559 -45.610  1.00  0.00     0.028 C 
ATOM     37  C   UNL     1       0.774 -13.533 -44.580  1.00  0.00     0.028 C 
BRANCH  35  38
ATOM     38  C   UNL     1       0.036 -15.675 -43.308  1.00  0.00     0.240 C 
ATOM     39  O   UNL     1       0.027 -15.310 -42.140  1.00  0.00    -0.274 OA
ATOM     40  N   UNL     1      -0.725 -16.662 -43.899  1.00  0.00    -0.325 N 
ATOM     41  H   UNL     1      -0.540 -16.839 -44.881  1.00  0.00     0.169 HD
BRANCH  40  42
ATOM     42  C   UNL     1      -1.686 -17.489 -43.286  1.00  0.00     0.041 A 
ATOM     43  C   UNL     1      -1.371 -18.641 -42.559  1.00  0.00     0.029 A 
ATOM     44  C   UNL     1      -3.029 -17.117 -43.423  1.00  0.00     0.029 A 
ATOM     45  C   UNL     1      -2.386 -19.415 -41.987  1.00  0.00     0.041 A 
ATOM     46  C   UNL     1      -4.043 -17.889 -42.849  1.00  0.00     0.041 A 
ATOM     47  C   UNL     1      -3.712 -19.034 -42.138  1.00  0.00     0.123 A 
ATOM     48  F   UNL     1      -4.683 -19.780 -41.597  1.00  0.00    -0.207 F 
ENDBRANCH  40  42
ENDBRANCH  35  38
ENDBRANCH  32  35
ENDBRANCH  29  31
ENDBRANCH   1  24
TORSDOF 12
ENDMDL
MODEL 20
REMARK VINA RESULT:    -8.415      3.109     10.087
REMARK INTER + INTRA:         -15.394
REMARK INTER:                 -14.145
REMARK INTRA:                  -1.249
REMARK UNBOUND:                -1.075
REMARK SMILES COc1cc2c(Oc3ccc(NC(=O)C4(C(=O)Nc5ccc(F)cc5)CC4)cc3F)ccnc2cc1OCCCN1CCOCC1
REMARK SMILES IDX 7 1 6 2 3 3 4 4 36 5 5 6 35 7 34 8 31 9 33 10 32 11 2 12
REMARK SMILES IDX 1 13 37 14 38 15 39 16 40 17 41 18 42 19 46 20 43 21 45 22
REMARK SMILES IDX 44 23 8 24 9 25 29 26 10 27 28 28 11 29 30 30 12 31 13 32
REMARK SMILES IDX 14 33 15 35 26 36 27 37 16 38 17 39 18 40 19 42 20 43 25 44
REMARK SMILES IDX 21 45 24 46 22 47 23 48
REMARK H PARENT 12 34 18 41
ROOT
ATOM      1  O   UNL     1       6.423 -14.166 -44.450  1.00  0.00    -0.454 OA
ENDROOT
BRANCH   1   2
ATOM      2  C   UNL     1       6.175 -15.376 -45.061  1.00  0.00     0.138 A 
ATOM      3  C   UNL     1       5.780 -17.775 -42.196  1.00  0.00     0.161 A 
ATOM      4  C   UNL     1       6.003 -16.585 -42.890  1.00  0.00     0.064 A 
ATOM      5  C   UNL     1       5.513 -18.950 -42.919  1.00  0.00     0.163 A 
ATOM      6  C   UNL     1       5.966 -16.546 -44.302  1.00  0.00     0.047 A 
ATOM      7  C   UNL     1       5.477 -18.901 -44.316  1.00  0.00     0.079 A 
ATOM      8  C   UNL     1       5.689 -17.722 -45.020  1.00  0.00     0.078 A 
ATOM      9  C   UNL     1       6.036 -15.385 -46.444  1.00  0.00     0.068 A 
ATOM     10  N   UNL     1       5.606 -17.749 -46.362  1.00  0.00    -0.256 NA
ATOM     11  C   UNL     1       5.764 -16.594 -47.044  1.00  0.00     0.115 A 
BRANCH   3  12
ATOM     12  O   UNL     1       5.798 -17.893 -40.829  1.00  0.00    -0.493 OA
ATOM     13  C   UNL     1       7.054 -18.093 -40.198  1.00  0.00     0.278 C 
ENDBRANCH   3  12
BRANCH   5  14
ATOM     14  O   UNL     1       5.297 -20.073 -42.165  1.00  0.00    -0.490 OA
BRANCH  14  15
ATOM     15  C   UNL     1       4.023 -20.711 -42.181  1.00  0.00     0.231 C 
BRANCH  15  16
ATOM     16  C   UNL     1       3.023 -20.016 -41.254  1.00  0.00     0.057 C 
BRANCH  16  17
ATOM     17  C   UNL     1       1.726 -20.827 -41.111  1.00  0.00     0.088 C 
BRANCH  17  18
ATOM     18  N   UNL     1       0.517 -20.257 -41.717  1.00  0.00    -0.299 NA
ATOM     19  C   UNL     1      -0.734 -20.879 -41.249  1.00  0.00     0.113 C 
ATOM     20  C   UNL     1       0.420 -18.793 -41.581  1.00  0.00     0.113 C 
ATOM     21  C   UNL     1      -1.941 -20.300 -42.003  1.00  0.00     0.175 C 
ATOM     22  C   UNL     1      -0.814 -18.260 -42.326  1.00  0.00     0.175 C 
ATOM     23  O   UNL     1      -2.018 -18.875 -41.845  1.00  0.00    -0.379 OA
ENDBRANCH  17  18
ENDBRANCH  16  17
ENDBRANCH  15  16
ENDBRANCH  14  15
ENDBRANCH   5  14
ENDBRANCH   1   2
BRANCH   1  24
ATOM     24  C   UNL     1       5.611 -13.109 -44.800  1.00  0.00     0.163 A 
ATOM     25  C   UNL     1       4.224 -13.188 -44.914  1.00  0.00     0.052 A 
ATOM     26  C   UNL     1       6.233 -11.875 -44.981  1.00  0.00     0.167 A 
ATOM     27  C   UNL     1       3.478 -12.039 -45.215  1.00  0.00     0.030 A 
ATOM     28  C   UNL     1       5.497 -10.733 -45.287  1.00  0.00     0.069 A 
ATOM     29  C   UNL     1       4.106 -10.805 -45.399  1.00  0.00     0.044 A 
ATOM     30  F   UNL     1       7.566 -11.771 -44.880  1.00  0.00    -0.203 F 
BRANCH  29  31
ATOM     31  N   UNL     1       3.422  -9.611 -45.693  1.00  0.00    -0.325 N 
ATOM     32  C   UNL     1       2.805  -8.758 -44.802  1.00  0.00     0.240 C 
ATOM     33  O   UNL     1       2.749  -8.847 -43.585  1.00  0.00    -0.273 OA
ATOM     34  H   UNL     1       3.423  -9.313 -46.664  1.00  0.00     0.169 HD
BRANCH  32  35
ATOM     35  C   UNL     1       2.181  -7.567 -45.465  1.00  0.00     0.128 C 
ATOM     36  C   UNL     1       2.645  -7.199 -46.875  1.00  0.00     0.028 C 
ATOM     37  C   UNL     1       3.076  -6.353 -45.719  1.00  0.00     0.028 C 
BRANCH  35  38
ATOM     38  C   UNL     1       0.741  -7.327 -45.127  1.00  0.00     0.240 C 
ATOM     39  O   UNL     1       0.422  -6.250 -44.643  1.00  0.00    -0.274 OA
ATOM     40  N   UNL     1      -0.068  -8.409 -45.405  1.00  0.00    -0.325 N 
ATOM     41  H   UNL     1       0.400  -9.231 -45.774  1.00  0.00     0.169 HD
BRANCH  40  42
ATOM     42  C   UNL     1      -1.453  -8.525 -45.185  1.00  0.00     0.041 A 
ATOM     43  C   UNL     1      -2.425  -8.140 -46.114  1.00  0.00     0.029 A 
ATOM     44  C   UNL     1      -1.863  -9.063 -43.958  1.00  0.00     0.029 A 
ATOM     45  C   UNL     1      -3.784  -8.280 -45.815  1.00  0.00     0.041 A 
ATOM     46  C   UNL     1      -3.220  -9.205 -43.661  1.00  0.00     0.041 A 
ATOM     47  C   UNL     1      -4.170  -8.809 -44.593  1.00  0.00     0.123 A 
ATOM     48  F   UNL     1      -5.471  -8.935 -44.304  1.00  0.00    -0.207 F 
ENDBRANCH  40  42
ENDBRANCH  35  38
ENDBRANCH  32  35
ENDBRANCH  29  31
ENDBRANCH   1  24
TORSDOF 12
ENDMDL
