MODEL 1
REMARK VINA RESULT:    -9.481      0.000      0.000
REMARK INTER + INTRA:         -18.267
REMARK INTER:                 -15.578
REMARK INTRA:                  -2.689
REMARK UNBOUND:                -2.689
REMARK SMILES CS(=O)(=O)CCNCc1ccc(-c2ccc3ncnc(Nc4ccc(OCc5cccc(F)c5)c(Cl)c4)c3c2)o1
REMARK SMILES IDX 13 1 14 2 15 3 16 4 17 5 18 6 19 7 20 8 38 9 39 10 12 11
REMARK SMILES IDX 9 12 10 13 40 14 11 15 8 16 7 17 6 19 5 20 2 21 3 22 4 23
REMARK SMILES IDX 1 24 21 25 22 27 23 28 37 29 24 30 35 31 25 32 36 33 26 34
REMARK SMILES IDX 27 35 28 36 29 37 34 38 30 39 32 40 31 41 33 42
REMARK H PARENT 7 18 21 26
ROOT
ATOM      1  C   UNL     1      -1.848 -17.433 -43.619  1.00  0.00     0.018 A 
ATOM      2  C   UNL     1      -3.195 -17.144 -43.388  1.00  0.00     0.014 A 
ATOM      3  C   UNL     1      -4.009 -18.044 -42.687  1.00  0.00     0.030 A 
ATOM      4  C   UNL     1      -3.524 -19.250 -42.202  1.00  0.00     0.076 A 
ATOM      5  N   UNL     1      -4.355 -20.053 -41.534  1.00  0.00    -0.236 NA
ATOM      6  C   UNL     1      -3.842 -21.198 -41.074  1.00  0.00     0.224 A 
ATOM      7  N   UNL     1      -2.584 -21.618 -41.228  1.00  0.00    -0.219 NA
ATOM      8  C   UNL     1      -1.757 -20.813 -41.917  1.00  0.00     0.141 A 
ATOM      9  C   UNL     1      -2.180 -19.570 -42.434  1.00  0.00     0.044 A 
ATOM     10  C   UNL     1      -1.352 -18.649 -43.135  1.00  0.00     0.026 A 
ENDROOT
BRANCH   1  11
ATOM     11  C   UNL     1      -0.977 -16.499 -44.331  1.00  0.00     0.134 A 
ATOM     12  C   UNL     1       0.091 -14.579 -44.521  1.00  0.00     0.118 A 
ATOM     13  C   UNL     1       0.389 -15.299 -45.658  1.00  0.00     0.047 A 
ATOM     14  O   UNL     1      -0.742 -15.301 -43.713  1.00  0.00    -0.460 OA
ATOM     15  C   UNL     1      -0.297 -16.532 -45.536  1.00  0.00     0.051 A 
BRANCH  12  16
ATOM     16  C   UNL     1       0.488 -13.231 -44.035  1.00  0.00     0.157 C 
BRANCH  16  17
ATOM     17  N   UNL     1      -0.468 -12.225 -44.518  1.00  0.00    -0.309 NA
ATOM     18  H   UNL     1      -1.409 -12.531 -44.248  1.00  0.00     0.123 HD
BRANCH  17  19
ATOM     19  C   UNL     1      -0.175 -10.894 -43.979  1.00  0.00     0.097 C 
BRANCH  19  20
ATOM     20  C   UNL     1      -0.578  -9.806 -44.966  1.00  0.00     0.152 C 
BRANCH  20  21
ATOM     21  S   UNL     1      -2.084 -10.182 -45.850  1.00  0.00     0.148 S 
ATOM     22  O   UNL     1      -1.747 -10.859 -47.090  1.00  0.00    -0.229 OA
ATOM     23  O   UNL     1      -3.006 -10.787 -44.906  1.00  0.00    -0.229 OA
ATOM     24  C   UNL     1      -2.752  -8.586 -46.264  1.00  0.00     0.158 C 
ENDBRANCH  20  21
ENDBRANCH  19  20
ENDBRANCH  17  19
ENDBRANCH  16  17
ENDBRANCH  12  16
ENDBRANCH   1  11
BRANCH   8  25
ATOM     25  N   UNL     1      -0.419 -21.232 -42.162  1.00  0.00    -0.340 N 
ATOM     26  H   UNL     1      -0.417 -22.242 -42.264  1.00  0.00     0.168 HD
BRANCH  25  27
ATOM     27  C   UNL     1       0.771 -20.770 -41.559  1.00  0.00     0.041 A 
ATOM     28  C   UNL     1       0.778 -19.910 -40.456  1.00  0.00     0.030 A 
ATOM     29  C   UNL     1       1.999 -21.058 -42.171  1.00  0.00     0.050 A 
ATOM     30  C   UNL     1       1.974 -19.396 -39.933  1.00  0.00     0.050 A 
ATOM     31  C   UNL     1       3.197 -20.547 -41.656  1.00  0.00     0.085 A 
ATOM     32  C   UNL     1       3.197 -19.709 -40.530  1.00  0.00     0.138 A 
ATOM     33  Cl  UNL     1       4.670 -20.975 -42.463  1.00  0.00    -0.080 Cl
BRANCH  32  34
ATOM     34  O   UNL     1       4.414 -19.254 -40.100  1.00  0.00    -0.487 OA
BRANCH  34  35
ATOM     35  C   UNL     1       4.665 -17.853 -40.169  1.00  0.00     0.265 C 
BRANCH  35  36
ATOM     36  C   UNL     1       5.035 -17.479 -41.586  1.00  0.00    -0.008 A 
ATOM     37  C   UNL     1       6.314 -17.762 -42.095  1.00  0.00     0.007 A 
ATOM     38  C   UNL     1       4.122 -16.798 -42.403  1.00  0.00     0.046 A 
ATOM     39  C   UNL     1       6.667 -17.389 -43.396  1.00  0.00     0.003 A 
ATOM     40  C   UNL     1       4.484 -16.432 -43.695  1.00  0.00     0.123 A 
ATOM     41  C   UNL     1       5.746 -16.722 -44.199  1.00  0.00     0.039 A 
ATOM     42  F   UNL     1       3.601 -15.779 -44.464  1.00  0.00    -0.207 F 
ENDBRANCH  35  36
ENDBRANCH  34  35
ENDBRANCH  32  34
ENDBRANCH  25  27
ENDBRANCH   8  25
TORSDOF 11
ENDMDL
MODEL 2
REMARK VINA RESULT:    -9.294      1.428      1.551
REMARK INTER + INTRA:         -17.959
REMARK INTER:                 -15.266
REMARK INTRA:                  -2.693
REMARK UNBOUND:                -2.689
REMARK SMILES CS(=O)(=O)CCNCc1ccc(-c2ccc3ncnc(Nc4ccc(OCc5cccc(F)c5)c(Cl)c4)c3c2)o1
REMARK SMILES IDX 13 1 14 2 15 3 16 4 17 5 18 6 19 7 20 8 38 9 39 10 12 11
REMARK SMILES IDX 9 12 10 13 40 14 11 15 8 16 7 17 6 19 5 20 2 21 3 22 4 23
REMARK SMILES IDX 1 24 21 25 22 27 23 28 37 29 24 30 35 31 25 32 36 33 26 34
REMARK SMILES IDX 27 35 28 36 29 37 34 38 30 39 32 40 31 41 33 42
REMARK H PARENT 7 18 21 26
ROOT
ATOM      1  C   UNL     1      -1.838 -17.426 -43.589  1.00  0.00     0.018 A 
ATOM      2  C   UNL     1      -3.185 -17.144 -43.352  1.00  0.00     0.014 A 
ATOM      3  C   UNL     1      -3.999 -18.061 -42.674  1.00  0.00     0.030 A 
ATOM      4  C   UNL     1      -3.513 -19.279 -42.220  1.00  0.00     0.076 A 
ATOM      5  N   UNL     1      -4.345 -20.100 -41.573  1.00  0.00    -0.236 NA
ATOM      6  C   UNL     1      -3.831 -21.255 -41.141  1.00  0.00     0.224 A 
ATOM      7  N   UNL     1      -2.572 -21.671 -41.305  1.00  0.00    -0.219 NA
ATOM      8  C   UNL     1      -1.745 -20.848 -41.973  1.00  0.00     0.141 A 
ATOM      9  C   UNL     1      -2.169 -19.593 -42.459  1.00  0.00     0.044 A 
ATOM     10  C   UNL     1      -1.342 -18.654 -43.136  1.00  0.00     0.026 A 
ENDROOT
BRANCH   1  11
ATOM     11  C   UNL     1      -0.967 -16.474 -44.277  1.00  0.00     0.134 A 
ATOM     12  C   UNL     1       0.179 -14.593 -44.378  1.00  0.00     0.118 A 
ATOM     13  C   UNL     1       0.373 -15.227 -45.587  1.00  0.00     0.047 A 
ATOM     14  O   UNL     1      -0.638 -15.343 -43.580  1.00  0.00    -0.460 OA
ATOM     15  C   UNL     1      -0.363 -16.434 -45.522  1.00  0.00     0.051 A 
BRANCH  12  16
ATOM     16  C   UNL     1       0.669 -13.309 -43.811  1.00  0.00     0.157 C 
BRANCH  16  17
ATOM     17  N   UNL     1      -0.377 -12.282 -43.921  1.00  0.00    -0.309 NA
ATOM     18  H   UNL     1      -0.258 -11.628 -43.140  1.00  0.00     0.123 HD
BRANCH  17  19
ATOM     19  C   UNL     1      -0.318 -11.582 -45.206  1.00  0.00     0.097 C 
BRANCH  19  20
ATOM     20  C   UNL     1       1.107 -11.145 -45.523  1.00  0.00     0.152 C 
BRANCH  20  21
ATOM     21  S   UNL     1       1.579  -9.633 -44.697  1.00  0.00     0.148 S 
ATOM     22  O   UNL     1       1.675  -9.886 -43.269  1.00  0.00    -0.229 OA
ATOM     23  O   UNL     1       2.702  -9.070 -45.423  1.00  0.00    -0.229 OA
ATOM     24  C   UNL     1       0.198  -8.544 -44.967  1.00  0.00     0.158 C 
ENDBRANCH  20  21
ENDBRANCH  19  20
ENDBRANCH  17  19
ENDBRANCH  16  17
ENDBRANCH  12  16
ENDBRANCH   1  11
BRANCH   8  25
ATOM     25  N   UNL     1      -0.408 -21.260 -42.228  1.00  0.00    -0.340 N 
ATOM     26  H   UNL     1      -0.406 -22.266 -42.362  1.00  0.00     0.168 HD
BRANCH  25  27
ATOM     27  C   UNL     1       0.782 -20.818 -41.609  1.00  0.00     0.041 A 
ATOM     28  C   UNL     1       0.786 -20.000 -40.473  1.00  0.00     0.030 A 
ATOM     29  C   UNL     1       2.010 -21.080 -42.230  1.00  0.00     0.050 A 
ATOM     30  C   UNL     1       1.981 -19.503 -39.932  1.00  0.00     0.050 A 
ATOM     31  C   UNL     1       3.207 -20.586 -41.697  1.00  0.00     0.085 A 
ATOM     32  C   UNL     1       3.205 -19.790 -40.540  1.00  0.00     0.138 A 
ATOM     33  Cl  UNL     1       4.681 -20.979 -42.520  1.00  0.00    -0.080 Cl
BRANCH  32  34
ATOM     34  O   UNL     1       4.421 -19.349 -40.093  1.00  0.00    -0.487 OA
BRANCH  34  35
ATOM     35  C   UNL     1       4.667 -17.945 -40.107  1.00  0.00     0.265 C 
BRANCH  35  36
ATOM     36  C   UNL     1       5.027 -17.514 -41.511  1.00  0.00    -0.008 A 
ATOM     37  C   UNL     1       6.302 -17.773 -42.040  1.00  0.00     0.007 A 
ATOM     38  C   UNL     1       4.106 -16.802 -42.293  1.00  0.00     0.046 A 
ATOM     39  C   UNL     1       6.645 -17.348 -43.328  1.00  0.00     0.003 A 
ATOM     40  C   UNL     1       4.458 -16.384 -43.572  1.00  0.00     0.123 A 
ATOM     41  C   UNL     1       5.717 -16.651 -44.096  1.00  0.00     0.039 A 
ATOM     42  F   UNL     1       3.568 -15.702 -44.308  1.00  0.00    -0.207 F 
ENDBRANCH  35  36
ENDBRANCH  34  35
ENDBRANCH  32  34
ENDBRANCH  25  27
ENDBRANCH   8  25
TORSDOF 11
ENDMDL
MODEL 3
REMARK VINA RESULT:    -9.198      4.817      8.911
REMARK INTER + INTRA:         -17.801
REMARK INTER:                 -15.086
REMARK INTRA:                  -2.715
REMARK UNBOUND:                -2.689
REMARK SMILES CS(=O)(=O)CCNCc1ccc(-c2ccc3ncnc(Nc4ccc(OCc5cccc(F)c5)c(Cl)c4)c3c2)o1
REMARK SMILES IDX 13 1 14 2 15 3 16 4 17 5 18 6 19 7 20 8 38 9 39 10 12 11
REMARK SMILES IDX 9 12 10 13 40 14 11 15 8 16 7 17 6 19 5 20 2 21 3 22 4 23
REMARK SMILES IDX 1 24 21 25 22 27 23 28 37 29 24 30 35 31 25 32 36 33 26 34
REMARK SMILES IDX 27 35 28 36 29 37 34 38 30 39 32 40 31 41 33 42
REMARK H PARENT 7 18 21 26
ROOT
ATOM      1  C   UNL     1       6.895 -11.376 -44.660  1.00  0.00     0.018 A 
ATOM      2  C   UNL     1       8.130 -11.978 -44.407  1.00  0.00     0.014 A 
ATOM      3  C   UNL     1       8.319 -13.346 -44.644  1.00  0.00     0.030 A 
ATOM      4  C   UNL     1       7.301 -14.157 -45.127  1.00  0.00     0.076 A 
ATOM      5  N   UNL     1       7.558 -15.450 -45.338  1.00  0.00    -0.236 NA
ATOM      6  C   UNL     1       6.553 -16.190 -45.816  1.00  0.00     0.224 A 
ATOM      7  N   UNL     1       5.317 -15.762 -46.090  1.00  0.00    -0.219 NA
ATOM      8  C   UNL     1       5.061 -14.463 -45.858  1.00  0.00     0.141 A 
ATOM      9  C   UNL     1       6.049 -13.580 -45.373  1.00  0.00     0.044 A 
ATOM     10  C   UNL     1       5.863 -12.188 -45.144  1.00  0.00     0.026 A 
ENDROOT
BRANCH   1  11
ATOM     11  C   UNL     1       6.682  -9.947 -44.438  1.00  0.00     0.134 A 
ATOM     12  C   UNL     1       5.424  -8.218 -43.894  1.00  0.00     0.118 A 
ATOM     13  C   UNL     1       6.676  -7.711 -44.171  1.00  0.00     0.047 A 
ATOM     14  O   UNL     1       5.420  -9.575 -44.059  1.00  0.00    -0.460 OA
ATOM     15  C   UNL     1       7.483  -8.821 -44.520  1.00  0.00     0.051 A 
BRANCH  12  16
ATOM     16  C   UNL     1       4.143  -7.595 -43.471  1.00  0.00     0.157 C 
BRANCH  16  17
ATOM     17  N   UNL     1       3.035  -8.537 -43.681  1.00  0.00    -0.309 NA
ATOM     18  H   UNL     1       2.607  -8.728 -42.769  1.00  0.00     0.123 HD
BRANCH  17  19
ATOM     19  C   UNL     1       2.045  -8.011 -44.624  1.00  0.00     0.097 C 
BRANCH  19  20
ATOM     20  C   UNL     1       0.927  -9.020 -44.860  1.00  0.00     0.152 C 
BRANCH  20  21
ATOM     21  S   UNL     1       1.266 -10.623 -44.147  1.00  0.00     0.148 S 
ATOM     22  O   UNL     1       2.512 -11.129 -44.696  1.00  0.00    -0.229 OA
ATOM     23  O   UNL     1       1.084 -10.510 -42.712  1.00  0.00    -0.229 OA
ATOM     24  C   UNL     1      -0.054 -11.651 -44.751  1.00  0.00     0.158 C 
ENDBRANCH  20  21
ENDBRANCH  19  20
ENDBRANCH  17  19
ENDBRANCH  16  17
ENDBRANCH  12  16
ENDBRANCH   1  11
BRANCH   8  25
ATOM     25  N   UNL     1       3.748 -13.961 -46.078  1.00  0.00    -0.340 N 
ATOM     26  H   UNL     1       3.794 -12.947 -46.090  1.00  0.00     0.168 HD
BRANCH  25  27
ATOM     27  C   UNL     1       2.529 -14.418 -45.530  1.00  0.00     0.041 A 
ATOM     28  C   UNL     1       2.389 -14.773 -44.183  1.00  0.00     0.030 A 
ATOM     29  C   UNL     1       1.451 -14.671 -46.388  1.00  0.00     0.050 A 
ATOM     30  C   UNL     1       1.191 -15.307 -43.687  1.00  0.00     0.050 A 
ATOM     31  C   UNL     1       0.252 -15.207 -45.899  1.00  0.00     0.085 A 
ATOM     32  C   UNL     1       0.110 -15.531 -44.541  1.00  0.00     0.138 A 
ATOM     33  Cl  UNL     1      -1.036 -15.464 -47.030  1.00  0.00    -0.080 Cl
BRANCH  32  34
ATOM     34  O   UNL     1      -1.095 -16.053 -44.155  1.00  0.00    -0.487 OA
BRANCH  34  35
ATOM     35  C   UNL     1      -1.129 -17.416 -43.740  1.00  0.00     0.265 C 
BRANCH  35  36
ATOM     36  C   UNL     1      -2.453 -17.702 -43.067  1.00  0.00    -0.008 A 
ATOM     37  C   UNL     1      -2.557 -18.690 -42.074  1.00  0.00     0.007 A 
ATOM     38  C   UNL     1      -3.612 -17.018 -43.461  1.00  0.00     0.046 A 
ATOM     39  C   UNL     1      -3.788 -18.976 -41.473  1.00  0.00     0.003 A 
ATOM     40  C   UNL     1      -4.830 -17.311 -42.857  1.00  0.00     0.123 A 
ATOM     41  C   UNL     1      -4.928 -18.281 -41.867  1.00  0.00     0.039 A 
ATOM     42  F   UNL     1      -5.930 -16.651 -43.245  1.00  0.00    -0.207 F 
ENDBRANCH  35  36
ENDBRANCH  34  35
ENDBRANCH  32  34
ENDBRANCH  25  27
ENDBRANCH   8  25
TORSDOF 11
ENDMDL
MODEL 4
REMARK VINA RESULT:    -8.745      3.326      4.954
REMARK INTER + INTRA:         -17.057
REMARK INTER:                 -13.885
REMARK INTRA:                  -3.172
REMARK UNBOUND:                -2.689
REMARK SMILES CS(=O)(=O)CCNCc1ccc(-c2ccc3ncnc(Nc4ccc(OCc5cccc(F)c5)c(Cl)c4)c3c2)o1
REMARK SMILES IDX 13 1 14 2 15 3 16 4 17 5 18 6 19 7 20 8 38 9 39 10 12 11
REMARK SMILES IDX 9 12 10 13 40 14 11 15 8 16 7 17 6 19 5 20 2 21 3 22 4 23
REMARK SMILES IDX 1 24 21 25 22 27 23 28 37 29 24 30 35 31 25 32 36 33 26 34
REMARK SMILES IDX 27 35 28 36 29 37 34 38 30 39 32 40 31 41 33 42
REMARK H PARENT 7 18 21 26
ROOT
ATOM      1  C   UNL     1       0.019 -16.104 -43.448  1.00  0.00     0.018 A 
ATOM      2  C   UNL     1      -1.130 -16.336 -44.206  1.00  0.00     0.014 A 
ATOM      3  C   UNL     1      -1.925 -17.467 -43.971  1.00  0.00     0.030 A 
ATOM      4  C   UNL     1      -1.606 -18.399 -42.993  1.00  0.00     0.076 A 
ATOM      5  N   UNL     1      -2.415 -19.447 -42.819  1.00  0.00    -0.236 NA
ATOM      6  C   UNL     1      -2.077 -20.311 -41.858  1.00  0.00     0.224 A 
ATOM      7  N   UNL     1      -1.004 -20.233 -41.065  1.00  0.00    -0.219 NA
ATOM      8  C   UNL     1      -0.185 -19.185 -41.259  1.00  0.00     0.141 A 
ATOM      9  C   UNL     1      -0.449 -18.196 -42.230  1.00  0.00     0.044 A 
ATOM     10  C   UNL     1       0.349 -17.041 -42.462  1.00  0.00     0.026 A 
ENDROOT
BRANCH   1  11
ATOM     11  C   UNL     1       0.851 -14.921 -43.664  1.00  0.00     0.134 A 
ATOM     12  C   UNL     1       2.801 -13.919 -43.907  1.00  0.00     0.118 A 
ATOM     13  C   UNL     1       1.845 -12.932 -44.018  1.00  0.00     0.047 A 
ATOM     14  O   UNL     1       2.204 -15.128 -43.687  1.00  0.00    -0.460 OA
ATOM     15  C   UNL     1       0.593 -13.575 -43.862  1.00  0.00     0.051 A 
BRANCH  12  16
ATOM     16  C   UNL     1       4.286 -13.912 -43.978  1.00  0.00     0.157 C 
BRANCH  16  17
ATOM     17  N   UNL     1       4.851 -14.090 -42.633  1.00  0.00    -0.309 NA
ATOM     18  H   UNL     1       4.072 -14.229 -41.981  1.00  0.00     0.123 HD
BRANCH  17  19
ATOM     19  C   UNL     1       5.786 -15.217 -42.581  1.00  0.00     0.097 C 
BRANCH  19  20
ATOM     20  C   UNL     1       7.017 -14.867 -41.754  1.00  0.00     0.152 C 
BRANCH  20  21
ATOM     21  S   UNL     1       7.608 -13.206 -42.044  1.00  0.00     0.148 S 
ATOM     22  O   UNL     1       7.680 -12.975 -43.477  1.00  0.00    -0.229 OA
ATOM     23  O   UNL     1       6.845 -12.315 -41.191  1.00  0.00    -0.229 OA
ATOM     24  C   UNL     1       9.270 -13.223 -41.410  1.00  0.00     0.158 C 
ENDBRANCH  20  21
ENDBRANCH  19  20
ENDBRANCH  17  19
ENDBRANCH  16  17
ENDBRANCH  12  16
ENDBRANCH   1  11
BRANCH   8  25
ATOM     25  N   UNL     1       1.003 -19.077 -40.483  1.00  0.00    -0.340 N 
ATOM     26  H   UNL     1       0.946 -18.226 -39.933  1.00  0.00     0.168 HD
BRANCH  25  27
ATOM     27  C   UNL     1       2.333 -19.357 -40.868  1.00  0.00     0.041 A 
ATOM     28  C   UNL     1       2.679 -20.469 -41.643  1.00  0.00     0.030 A 
ATOM     29  C   UNL     1       3.372 -18.579 -40.338  1.00  0.00     0.050 A 
ATOM     30  C   UNL     1       4.018 -20.771 -41.935  1.00  0.00     0.050 A 
ATOM     31  C   UNL     1       4.710 -18.876 -40.624  1.00  0.00     0.085 A 
ATOM     32  C   UNL     1       5.048 -19.977 -41.427  1.00  0.00     0.138 A 
ATOM     33  Cl  UNL     1       5.928 -17.847 -39.944  1.00  0.00    -0.080 Cl
BRANCH  32  34
ATOM     34  O   UNL     1       6.381 -20.192 -41.650  1.00  0.00    -0.487 OA
BRANCH  34  35
ATOM     35  C   UNL     1       6.780 -20.619 -42.950  1.00  0.00     0.265 C 
BRANCH  35  36
ATOM     36  C   UNL     1       6.909 -19.415 -43.855  1.00  0.00    -0.008 A 
ATOM     37  C   UNL     1       7.983 -18.520 -43.715  1.00  0.00     0.007 A 
ATOM     38  C   UNL     1       5.928 -19.142 -44.818  1.00  0.00     0.046 A 
ATOM     39  C   UNL     1       8.087 -17.389 -44.532  1.00  0.00     0.003 A 
ATOM     40  C   UNL     1       6.040 -18.014 -45.625  1.00  0.00     0.123 A 
ATOM     41  C   UNL     1       7.110 -17.137 -45.492  1.00  0.00     0.039 A 
ATOM     42  F   UNL     1       5.094 -17.765 -46.541  1.00  0.00    -0.207 F 
ENDBRANCH  35  36
ENDBRANCH  34  35
ENDBRANCH  32  34
ENDBRANCH  25  27
ENDBRANCH   8  25
TORSDOF 11
ENDMDL
MODEL 5
REMARK VINA RESULT:    -8.649      3.799      7.352
REMARK INTER + INTRA:         -16.900
REMARK INTER:                 -14.696
REMARK INTRA:                  -2.204
REMARK UNBOUND:                -2.689
REMARK SMILES CS(=O)(=O)CCNCc1ccc(-c2ccc3ncnc(Nc4ccc(OCc5cccc(F)c5)c(Cl)c4)c3c2)o1
REMARK SMILES IDX 13 1 14 2 15 3 16 4 17 5 18 6 19 7 20 8 38 9 39 10 12 11
REMARK SMILES IDX 9 12 10 13 40 14 11 15 8 16 7 17 6 19 5 20 2 21 3 22 4 23
REMARK SMILES IDX 1 24 21 25 22 27 23 28 37 29 24 30 35 31 25 32 36 33 26 34
REMARK SMILES IDX 27 35 28 36 29 37 34 38 30 39 32 40 31 41 33 42
REMARK H PARENT 7 18 21 26
ROOT
ATOM      1  C   UNL     1       2.650 -18.984 -41.007  1.00  0.00     0.018 A 
ATOM      2  C   UNL     1       2.592 -20.353 -40.742  1.00  0.00     0.014 A 
ATOM      3  C   UNL     1       1.401 -21.068 -40.931  1.00  0.00     0.030 A 
ATOM      4  C   UNL     1       0.239 -20.455 -41.378  1.00  0.00     0.076 A 
ATOM      5  N   UNL     1      -0.856 -21.202 -41.544  1.00  0.00    -0.236 NA
ATOM      6  C   UNL     1      -1.948 -20.573 -41.989  1.00  0.00     0.224 A 
ATOM      7  N   UNL     1      -2.051 -19.271 -42.270  1.00  0.00    -0.219 NA
ATOM      8  C   UNL     1      -0.950 -18.522 -42.082  1.00  0.00     0.141 A 
ATOM      9  C   UNL     1       0.267 -19.079 -41.636  1.00  0.00     0.044 A 
ATOM     10  C   UNL     1       1.480 -18.358 -41.455  1.00  0.00     0.026 A 
ENDROOT
BRANCH   1  11
ATOM     11  C   UNL     1       3.887 -18.223 -40.835  1.00  0.00     0.134 A 
ATOM     12  C   UNL     1       5.365 -16.721 -41.484  1.00  0.00     0.118 A 
ATOM     13  C   UNL     1       5.823 -17.216 -40.282  1.00  0.00     0.047 A 
ATOM     14  O   UNL     1       4.192 -17.331 -41.827  1.00  0.00    -0.460 OA
ATOM     15  C   UNL     1       4.874 -18.181 -39.865  1.00  0.00     0.051 A 
BRANCH  12  16
ATOM     16  C   UNL     1       5.884 -15.696 -42.428  1.00  0.00     0.157 C 
BRANCH  16  17
ATOM     17  N   UNL     1       4.874 -14.649 -42.635  1.00  0.00    -0.309 NA
ATOM     18  H   UNL     1       4.824 -14.088 -41.778  1.00  0.00     0.123 HD
BRANCH  17  19
ATOM     19  C   UNL     1       5.189 -13.810 -43.793  1.00  0.00     0.097 C 
BRANCH  19  20
ATOM     20  C   UNL     1       6.694 -13.735 -44.018  1.00  0.00     0.152 C 
BRANCH  20  21
ATOM     21  S   UNL     1       7.475 -12.409 -43.111  1.00  0.00     0.148 S 
ATOM     22  O   UNL     1       7.669 -11.278 -44.003  1.00  0.00    -0.229 OA
ATOM     23  O   UNL     1       6.753 -12.247 -41.863  1.00  0.00    -0.229 OA
ATOM     24  C   UNL     1       9.079 -13.055 -42.694  1.00  0.00     0.158 C 
ENDBRANCH  20  21
ENDBRANCH  19  20
ENDBRANCH  17  19
ENDBRANCH  16  17
ENDBRANCH  12  16
ENDBRANCH   1  11
BRANCH   8  25
ATOM     25  N   UNL     1      -1.014 -17.120 -42.311  1.00  0.00    -0.340 N 
ATOM     26  H   UNL     1      -1.982 -16.828 -42.225  1.00  0.00     0.168 HD
BRANCH  25  27
ATOM     27  C   UNL     1      -0.326 -16.355 -43.279  1.00  0.00     0.041 A 
ATOM     28  C   UNL     1       0.614 -15.374 -42.943  1.00  0.00     0.030 A 
ATOM     29  C   UNL     1      -0.698 -16.470 -44.625  1.00  0.00     0.050 A 
ATOM     30  C   UNL     1       1.215 -14.569 -43.921  1.00  0.00     0.050 A 
ATOM     31  C   UNL     1      -0.103 -15.667 -45.607  1.00  0.00     0.085 A 
ATOM     32  C   UNL     1       0.862 -14.707 -45.264  1.00  0.00     0.138 A 
ATOM     33  Cl  UNL     1      -0.608 -15.895 -47.250  1.00  0.00    -0.080 Cl
BRANCH  32  34
ATOM     34  O   UNL     1       1.386 -13.966 -46.289  1.00  0.00    -0.487 OA
BRANCH  34  35
ATOM     35  C   UNL     1       1.554 -12.566 -46.083  1.00  0.00     0.265 C 
BRANCH  35  36
ATOM     36  C   UNL     1       0.197 -11.900 -46.039  1.00  0.00    -0.008 A 
ATOM     37  C   UNL     1      -0.692 -12.005 -47.122  1.00  0.00     0.007 A 
ATOM     38  C   UNL     1      -0.177 -11.122 -44.934  1.00  0.00     0.046 A 
ATOM     39  C   UNL     1      -1.935 -11.364 -47.094  1.00  0.00     0.003 A 
ATOM     40  C   UNL     1      -1.415 -10.488 -44.918  1.00  0.00     0.123 A 
ATOM     41  C   UNL     1      -2.297 -10.603 -45.986  1.00  0.00     0.039 A 
ATOM     42  F   UNL     1      -1.759  -9.746 -43.856  1.00  0.00    -0.207 F 
ENDBRANCH  35  36
ENDBRANCH  34  35
ENDBRANCH  32  34
ENDBRANCH  25  27
ENDBRANCH   8  25
TORSDOF 11
ENDMDL
MODEL 6
REMARK VINA RESULT:    -8.632      4.571      8.665
REMARK INTER + INTRA:         -16.871
REMARK INTER:                 -14.247
REMARK INTRA:                  -2.624
REMARK UNBOUND:                -2.689
REMARK SMILES CS(=O)(=O)CCNCc1ccc(-c2ccc3ncnc(Nc4ccc(OCc5cccc(F)c5)c(Cl)c4)c3c2)o1
REMARK SMILES IDX 13 1 14 2 15 3 16 4 17 5 18 6 19 7 20 8 38 9 39 10 12 11
REMARK SMILES IDX 9 12 10 13 40 14 11 15 8 16 7 17 6 19 5 20 2 21 3 22 4 23
REMARK SMILES IDX 1 24 21 25 22 27 23 28 37 29 24 30 35 31 25 32 36 33 26 34
REMARK SMILES IDX 27 35 28 36 29 37 34 38 30 39 32 40 31 41 33 42
REMARK H PARENT 7 18 21 26
ROOT
ATOM      1  C   UNL     1       6.415 -11.789 -44.886  1.00  0.00     0.018 A 
ATOM      2  C   UNL     1       7.668 -12.373 -44.692  1.00  0.00     0.014 A 
ATOM      3  C   UNL     1       7.863 -13.741 -44.925  1.00  0.00     0.030 A 
ATOM      4  C   UNL     1       6.832 -14.569 -45.345  1.00  0.00     0.076 A 
ATOM      5  N   UNL     1       7.093 -15.861 -45.556  1.00  0.00    -0.236 NA
ATOM      6  C   UNL     1       6.075 -16.619 -45.974  1.00  0.00     0.224 A 
ATOM      7  N   UNL     1       4.821 -16.210 -46.187  1.00  0.00    -0.219 NA
ATOM      8  C   UNL     1       4.561 -14.911 -45.955  1.00  0.00     0.141 A 
ATOM      9  C   UNL     1       5.561 -14.010 -45.532  1.00  0.00     0.044 A 
ATOM     10  C   UNL     1       5.369 -12.619 -45.307  1.00  0.00     0.026 A 
ENDROOT
BRANCH   1  11
ATOM     11  C   UNL     1       6.195 -10.360 -44.668  1.00  0.00     0.134 A 
ATOM     12  C   UNL     1       4.897  -8.615 -44.301  1.00  0.00     0.118 A 
ATOM     13  C   UNL     1       6.187  -8.131 -44.351  1.00  0.00     0.047 A 
ATOM     14  O   UNL     1       4.895  -9.967 -44.497  1.00  0.00    -0.460 OA
ATOM     15  C   UNL     1       7.020  -9.251 -44.587  1.00  0.00     0.051 A 
BRANCH  12  16
ATOM     16  C   UNL     1       3.575  -7.970 -44.084  1.00  0.00     0.157 C 
BRANCH  16  17
ATOM     17  N   UNL     1       2.544  -8.999 -43.887  1.00  0.00    -0.309 NA
ATOM     18  H   UNL     1       2.197  -8.915 -42.925  1.00  0.00     0.123 HD
BRANCH  17  19
ATOM     19  C   UNL     1       1.451  -8.865 -44.853  1.00  0.00     0.097 C 
BRANCH  19  20
ATOM     20  C   UNL     1       0.282  -9.770 -44.482  1.00  0.00     0.152 C 
BRANCH  20  21
ATOM     21  S   UNL     1       0.652 -11.508 -44.671  1.00  0.00     0.148 S 
ATOM     22  O   UNL     1      -0.511 -12.181 -45.222  1.00  0.00    -0.229 OA
ATOM     23  O   UNL     1       1.943 -11.612 -45.327  1.00  0.00    -0.229 OA
ATOM     24  C   UNL     1       0.878 -12.086 -43.004  1.00  0.00     0.158 C 
ENDBRANCH  20  21
ENDBRANCH  19  20
ENDBRANCH  17  19
ENDBRANCH  16  17
ENDBRANCH  12  16
ENDBRANCH   1  11
BRANCH   8  25
ATOM     25  N   UNL     1       3.232 -14.428 -46.112  1.00  0.00    -0.340 N 
ATOM     26  H   UNL     1       3.236 -13.428 -45.939  1.00  0.00     0.168 HD
BRANCH  25  27
ATOM     27  C   UNL     1       2.024 -15.023 -45.685  1.00  0.00     0.041 A 
ATOM     28  C   UNL     1       0.964 -15.296 -46.556  1.00  0.00     0.030 A 
ATOM     29  C   UNL     1       1.811 -15.218 -44.313  1.00  0.00     0.050 A 
ATOM     30  C   UNL     1      -0.257 -15.805 -46.088  1.00  0.00     0.050 A 
ATOM     31  C   UNL     1       0.594 -15.724 -43.839  1.00  0.00     0.085 A 
ATOM     32  C   UNL     1      -0.454 -16.024 -44.724  1.00  0.00     0.138 A 
ATOM     33  Cl  UNL     1       0.428 -15.954 -42.129  1.00  0.00    -0.080 Cl
BRANCH  32  34
ATOM     34  O   UNL     1      -1.608 -16.510 -44.170  1.00  0.00    -0.487 OA
BRANCH  34  35
ATOM     35  C   UNL     1      -1.642 -17.887 -43.802  1.00  0.00     0.265 C 
BRANCH  35  36
ATOM     36  C   UNL     1      -2.933 -18.178 -43.071  1.00  0.00    -0.008 A 
ATOM     37  C   UNL     1      -3.975 -17.235 -43.045  1.00  0.00     0.007 A 
ATOM     38  C   UNL     1      -3.093 -19.377 -42.363  1.00  0.00     0.046 A 
ATOM     39  C   UNL     1      -5.157 -17.491 -42.344  1.00  0.00     0.003 A 
ATOM     40  C   UNL     1      -4.274 -19.621 -41.668  1.00  0.00     0.123 A 
ATOM     41  C   UNL     1      -5.306 -18.691 -41.654  1.00  0.00     0.039 A 
ATOM     42  F   UNL     1      -4.413 -20.771 -40.994  1.00  0.00    -0.207 F 
ENDBRANCH  35  36
ENDBRANCH  34  35
ENDBRANCH  32  34
ENDBRANCH  25  27
ENDBRANCH   8  25
TORSDOF 11
ENDMDL
MODEL 7
REMARK VINA RESULT:    -8.627      1.935      2.744
REMARK INTER + INTRA:         -16.863
REMARK INTER:                 -14.248
REMARK INTRA:                  -2.615
REMARK UNBOUND:                -2.689
REMARK SMILES CS(=O)(=O)CCNCc1ccc(-c2ccc3ncnc(Nc4ccc(OCc5cccc(F)c5)c(Cl)c4)c3c2)o1
REMARK SMILES IDX 13 1 14 2 15 3 16 4 17 5 18 6 19 7 20 8 38 9 39 10 12 11
REMARK SMILES IDX 9 12 10 13 40 14 11 15 8 16 7 17 6 19 5 20 2 21 3 22 4 23
REMARK SMILES IDX 1 24 21 25 22 27 23 28 37 29 24 30 35 31 25 32 36 33 26 34
REMARK SMILES IDX 27 35 28 36 29 37 34 38 30 39 32 40 31 41 33 42
REMARK H PARENT 7 18 21 26
ROOT
ATOM      1  C   UNL     1      -0.204 -16.519 -43.309  1.00  0.00     0.018 A 
ATOM      2  C   UNL     1      -1.477 -16.836 -43.787  1.00  0.00     0.014 A 
ATOM      3  C   UNL     1      -2.109 -18.026 -43.402  1.00  0.00     0.030 A 
ATOM      4  C   UNL     1      -1.505 -18.935 -42.546  1.00  0.00     0.076 A 
ATOM      5  N   UNL     1      -2.171 -20.044 -42.215  1.00  0.00    -0.236 NA
ATOM      6  C   UNL     1      -1.557 -20.885 -41.377  1.00  0.00     0.224 A 
ATOM      7  N   UNL     1      -0.340 -20.728 -40.851  1.00  0.00    -0.219 NA
ATOM      8  C   UNL     1       0.333 -19.618 -41.203  1.00  0.00     0.141 A 
ATOM      9  C   UNL     1      -0.221 -18.648 -42.064  1.00  0.00     0.044 A 
ATOM     10  C   UNL     1       0.413 -17.433 -42.447  1.00  0.00     0.026 A 
ENDROOT
BRANCH   1  11
ATOM     11  C   UNL     1       0.465 -15.273 -43.682  1.00  0.00     0.134 A 
ATOM     12  C   UNL     1       0.467 -13.222 -44.491  1.00  0.00     0.118 A 
ATOM     13  C   UNL     1       1.772 -13.498 -44.140  1.00  0.00     0.047 A 
ATOM     14  O   UNL     1      -0.330 -14.297 -44.219  1.00  0.00    -0.460 OA
ATOM     15  C   UNL     1       1.770 -14.815 -43.621  1.00  0.00     0.051 A 
BRANCH  12  16
ATOM     16  C   UNL     1      -0.199 -12.030 -45.081  1.00  0.00     0.157 C 
BRANCH  16  17
ATOM     17  N   UNL     1      -1.116 -11.434 -44.100  1.00  0.00    -0.309 NA
ATOM     18  H   UNL     1      -1.048 -11.980 -43.234  1.00  0.00     0.123 HD
BRANCH  17  19
ATOM     19  C   UNL     1      -0.807 -10.023 -43.855  1.00  0.00     0.097 C 
BRANCH  19  20
ATOM     20  C   UNL     1      -2.082  -9.216 -43.638  1.00  0.00     0.152 C 
BRANCH  20  21
ATOM     21  S   UNL     1      -3.405  -9.682 -44.744  1.00  0.00     0.148 S 
ATOM     22  O   UNL     1      -2.880  -9.766 -46.097  1.00  0.00    -0.229 OA
ATOM     23  O   UNL     1      -4.096 -10.811 -44.150  1.00  0.00    -0.229 OA
ATOM     24  C   UNL     1      -4.527  -8.304 -44.679  1.00  0.00     0.158 C 
ENDBRANCH  20  21
ENDBRANCH  19  20
ENDBRANCH  17  19
ENDBRANCH  16  17
ENDBRANCH  12  16
ENDBRANCH   1  11
BRANCH   8  25
ATOM     25  N   UNL     1       1.657 -19.423 -40.719  1.00  0.00    -0.340 N 
ATOM     26  H   UNL     1       1.656 -18.607 -40.115  1.00  0.00     0.168 HD
BRANCH  25  27
ATOM     27  C   UNL     1       2.876 -19.548 -41.420  1.00  0.00     0.041 A 
ATOM     28  C   UNL     1       3.266 -20.730 -42.058  1.00  0.00     0.030 A 
ATOM     29  C   UNL     1       3.807 -18.502 -41.357  1.00  0.00     0.050 A 
ATOM     30  C   UNL     1       4.522 -20.854 -42.671  1.00  0.00     0.050 A 
ATOM     31  C   UNL     1       5.064 -18.619 -41.964  1.00  0.00     0.085 A 
ATOM     32  C   UNL     1       5.434 -19.799 -42.628  1.00  0.00     0.138 A 
ATOM     33  Cl  UNL     1       6.141 -17.266 -41.854  1.00  0.00    -0.080 Cl
BRANCH  32  34
ATOM     34  O   UNL     1       6.683 -19.824 -43.189  1.00  0.00    -0.487 OA
BRANCH  34  35
ATOM     35  C   UNL     1       6.776 -19.940 -44.606  1.00  0.00     0.265 C 
BRANCH  35  36
ATOM     36  C   UNL     1       6.792 -18.559 -45.222  1.00  0.00    -0.008 A 
ATOM     37  C   UNL     1       7.931 -17.742 -45.127  1.00  0.00     0.007 A 
ATOM     38  C   UNL     1       5.650 -18.051 -45.855  1.00  0.00     0.046 A 
ATOM     39  C   UNL     1       7.936 -16.453 -45.670  1.00  0.00     0.003 A 
ATOM     40  C   UNL     1       5.666 -16.768 -46.392  1.00  0.00     0.123 A 
ATOM     41  C   UNL     1       6.797 -15.966 -46.306  1.00  0.00     0.039 A 
ATOM     42  F   UNL     1       4.565 -16.294 -46.993  1.00  0.00    -0.207 F 
ENDBRANCH  35  36
ENDBRANCH  34  35
ENDBRANCH  32  34
ENDBRANCH  25  27
ENDBRANCH   8  25
TORSDOF 11
ENDMDL
MODEL 8
REMARK VINA RESULT:    -8.497      3.407      7.112
REMARK INTER + INTRA:         -16.649
REMARK INTER:                 -14.308
REMARK INTRA:                  -2.341
REMARK UNBOUND:                -2.689
REMARK SMILES CS(=O)(=O)CCNCc1ccc(-c2ccc3ncnc(Nc4ccc(OCc5cccc(F)c5)c(Cl)c4)c3c2)o1
REMARK SMILES IDX 13 1 14 2 15 3 16 4 17 5 18 6 19 7 20 8 38 9 39 10 12 11
REMARK SMILES IDX 9 12 10 13 40 14 11 15 8 16 7 17 6 19 5 20 2 21 3 22 4 23
REMARK SMILES IDX 1 24 21 25 22 27 23 28 37 29 24 30 35 31 25 32 36 33 26 34
REMARK SMILES IDX 27 35 28 36 29 37 34 38 30 39 32 40 31 41 33 42
REMARK H PARENT 7 18 21 26
ROOT
ATOM      1  C   UNL     1       2.615 -18.941 -41.013  1.00  0.00     0.018 A 
ATOM      2  C   UNL     1       2.534 -20.311 -40.754  1.00  0.00     0.014 A 
ATOM      3  C   UNL     1       1.332 -21.005 -40.948  1.00  0.00     0.030 A 
ATOM      4  C   UNL     1       0.181 -20.370 -41.394  1.00  0.00     0.076 A 
ATOM      5  N   UNL     1      -0.926 -21.098 -41.566  1.00  0.00    -0.236 NA
ATOM      6  C   UNL     1      -2.006 -20.449 -42.009  1.00  0.00     0.224 A 
ATOM      7  N   UNL     1      -2.088 -19.144 -42.284  1.00  0.00    -0.219 NA
ATOM      8  C   UNL     1      -0.975 -18.415 -42.092  1.00  0.00     0.141 A 
ATOM      9  C   UNL     1       0.232 -18.993 -41.646  1.00  0.00     0.044 A 
ATOM     10  C   UNL     1       1.457 -18.294 -41.460  1.00  0.00     0.026 A 
ENDROOT
BRANCH   1  11
ATOM     11  C   UNL     1       3.864 -18.202 -40.835  1.00  0.00     0.134 A 
ATOM     12  C   UNL     1       5.363 -16.713 -41.471  1.00  0.00     0.118 A 
ATOM     13  C   UNL     1       5.818 -17.232 -40.277  1.00  0.00     0.047 A 
ATOM     14  O   UNL     1       4.179 -17.301 -41.817  1.00  0.00    -0.460 OA
ATOM     15  C   UNL     1       4.856 -18.188 -39.870  1.00  0.00     0.051 A 
BRANCH  12  16
ATOM     16  C   UNL     1       5.894 -15.684 -42.403  1.00  0.00     0.157 C 
BRANCH  16  17
ATOM     17  N   UNL     1       4.875 -14.653 -42.642  1.00  0.00    -0.309 NA
ATOM     18  H   UNL     1       5.165 -13.804 -42.145  1.00  0.00     0.123 HD
BRANCH  17  19
ATOM     19  C   UNL     1       4.695 -14.388 -44.072  1.00  0.00     0.097 C 
BRANCH  19  20
ATOM     20  C   UNL     1       5.859 -14.947 -44.880  1.00  0.00     0.152 C 
BRANCH  20  21
ATOM     21  S   UNL     1       5.342 -16.057 -46.181  1.00  0.00     0.148 S 
ATOM     22  O   UNL     1       3.890 -16.065 -46.245  1.00  0.00    -0.229 OA
ATOM     23  O   UNL     1       6.129 -15.746 -47.360  1.00  0.00    -0.229 OA
ATOM     24  C   UNL     1       5.872 -17.659 -45.619  1.00  0.00     0.158 C 
ENDBRANCH  20  21
ENDBRANCH  19  20
ENDBRANCH  17  19
ENDBRANCH  16  17
ENDBRANCH  12  16
ENDBRANCH   1  11
BRANCH   8  25
ATOM     25  N   UNL     1      -1.015 -17.010 -42.315  1.00  0.00    -0.340 N 
ATOM     26  H   UNL     1      -1.971 -16.696 -42.186  1.00  0.00     0.168 HD
BRANCH  25  27
ATOM     27  C   UNL     1      -0.352 -16.259 -43.310  1.00  0.00     0.041 A 
ATOM     28  C   UNL     1       0.382 -15.103 -43.024  1.00  0.00     0.030 A 
ATOM     29  C   UNL     1      -0.551 -16.591 -44.657  1.00  0.00     0.050 A 
ATOM     30  C   UNL     1       0.956 -14.327 -44.043  1.00  0.00     0.050 A 
ATOM     31  C   UNL     1       0.017 -15.820 -45.680  1.00  0.00     0.085 A 
ATOM     32  C   UNL     1       0.777 -14.678 -45.382  1.00  0.00     0.138 A 
ATOM     33  Cl  UNL     1      -0.263 -16.318 -47.316  1.00  0.00    -0.080 Cl
BRANCH  32  34
ATOM     34  O   UNL     1       1.290 -13.984 -46.445  1.00  0.00    -0.487 OA
BRANCH  34  35
ATOM     35  C   UNL     1       0.479 -12.971 -47.034  1.00  0.00     0.265 C 
BRANCH  35  36
ATOM     36  C   UNL     1       0.437 -11.768 -46.118  1.00  0.00    -0.008 A 
ATOM     37  C   UNL     1       1.623 -11.144 -45.695  1.00  0.00     0.007 A 
ATOM     38  C   UNL     1      -0.787 -11.286 -45.635  1.00  0.00     0.046 A 
ATOM     39  C   UNL     1       1.587 -10.050 -44.824  1.00  0.00     0.003 A 
ATOM     40  C   UNL     1      -0.811 -10.197 -44.768  1.00  0.00     0.123 A 
ATOM     41  C   UNL     1       0.363  -9.575 -44.361  1.00  0.00     0.039 A 
ATOM     42  F   UNL     1      -1.989  -9.747 -44.313  1.00  0.00    -0.207 F 
ENDBRANCH  35  36
ENDBRANCH  34  35
ENDBRANCH  32  34
ENDBRANCH  25  27
ENDBRANCH   8  25
TORSDOF 11
ENDMDL
MODEL 9
REMARK VINA RESULT:    -8.455      3.869      7.554
REMARK INTER + INTRA:         -16.581
REMARK INTER:                 -14.456
REMARK INTRA:                  -2.125
REMARK UNBOUND:                -2.689
REMARK SMILES CS(=O)(=O)CCNCc1ccc(-c2ccc3ncnc(Nc4ccc(OCc5cccc(F)c5)c(Cl)c4)c3c2)o1
REMARK SMILES IDX 13 1 14 2 15 3 16 4 17 5 18 6 19 7 20 8 38 9 39 10 12 11
REMARK SMILES IDX 9 12 10 13 40 14 11 15 8 16 7 17 6 19 5 20 2 21 3 22 4 23
REMARK SMILES IDX 1 24 21 25 22 27 23 28 37 29 24 30 35 31 25 32 36 33 26 34
REMARK SMILES IDX 27 35 28 36 29 37 34 38 30 39 32 40 31 41 33 42
REMARK H PARENT 7 18 21 26
ROOT
ATOM      1  C   UNL     1       6.601 -17.070 -44.548  1.00  0.00     0.018 A 
ATOM      2  C   UNL     1       7.422 -17.762 -45.440  1.00  0.00     0.014 A 
ATOM      3  C   UNL     1       7.599 -19.147 -45.323  1.00  0.00     0.030 A 
ATOM      4  C   UNL     1       6.981 -19.885 -44.324  1.00  0.00     0.076 A 
ATOM      5  N   UNL     1       7.187 -21.203 -44.279  1.00  0.00    -0.236 NA
ATOM      6  C   UNL     1       6.561 -21.876 -43.309  1.00  0.00     0.224 A 
ATOM      7  N   UNL     1       5.761 -21.354 -42.375  1.00  0.00    -0.219 NA
ATOM      8  C   UNL     1       5.572 -20.024 -42.415  1.00  0.00     0.141 A 
ATOM      9  C   UNL     1       6.164 -19.212 -43.406  1.00  0.00     0.044 A 
ATOM     10  C   UNL     1       5.976 -17.808 -43.535  1.00  0.00     0.026 A 
ENDROOT
BRANCH   1  11
ATOM     11  C   UNL     1       6.388 -15.629 -44.664  1.00  0.00     0.134 A 
ATOM     12  C   UNL     1       5.095 -13.843 -44.742  1.00  0.00     0.118 A 
ATOM     13  C   UNL     1       6.391 -13.385 -44.858  1.00  0.00     0.047 A 
ATOM     14  O   UNL     1       5.087 -15.205 -44.629  1.00  0.00    -0.460 OA
ATOM     15  C   UNL     1       7.220 -14.532 -44.808  1.00  0.00     0.051 A 
BRANCH  12  16
ATOM     16  C   UNL     1       3.773 -13.164 -44.719  1.00  0.00     0.157 C 
BRANCH  16  17
ATOM     17  N   UNL     1       2.908 -13.790 -43.709  1.00  0.00    -0.309 NA
ATOM     18  H   UNL     1       2.808 -13.131 -42.929  1.00  0.00     0.123 HD
BRANCH  17  19
ATOM     19  C   UNL     1       1.600 -14.149 -44.261  1.00  0.00     0.097 C 
BRANCH  19  20
ATOM     20  C   UNL     1       1.751 -15.081 -45.457  1.00  0.00     0.152 C 
BRANCH  20  21
ATOM     21  S   UNL     1       0.268 -15.202 -46.446  1.00  0.00     0.148 S 
ATOM     22  O   UNL     1      -0.859 -15.481 -45.573  1.00  0.00    -0.229 OA
ATOM     23  O   UNL     1       0.243 -14.059 -47.340  1.00  0.00    -0.229 OA
ATOM     24  C   UNL     1       0.541 -16.638 -47.460  1.00  0.00     0.158 C 
ENDBRANCH  20  21
ENDBRANCH  19  20
ENDBRANCH  17  19
ENDBRANCH  16  17
ENDBRANCH  12  16
ENDBRANCH   1  11
BRANCH   8  25
ATOM     25  N   UNL     1       4.774 -19.403 -41.414  1.00  0.00    -0.340 N 
ATOM     26  H   UNL     1       5.221 -19.552 -40.515  1.00  0.00     0.168 HD
BRANCH  25  27
ATOM     27  C   UNL     1       3.367 -19.386 -41.297  1.00  0.00     0.041 A 
ATOM     28  C   UNL     1       2.610 -20.541 -41.073  1.00  0.00     0.030 A 
ATOM     29  C   UNL     1       2.677 -18.194 -41.559  1.00  0.00     0.050 A 
ATOM     30  C   UNL     1       1.208 -20.507 -41.049  1.00  0.00     0.050 A 
ATOM     31  C   UNL     1       1.278 -18.153 -41.539  1.00  0.00     0.085 A 
ATOM     32  C   UNL     1       0.527 -19.312 -41.284  1.00  0.00     0.138 A 
ATOM     33  Cl  UNL     1       0.511 -16.630 -41.852  1.00  0.00    -0.080 Cl
BRANCH  32  34
ATOM     34  O   UNL     1      -0.835 -19.177 -41.288  1.00  0.00    -0.487 OA
BRANCH  34  35
ATOM     35  C   UNL     1      -1.525 -19.418 -42.512  1.00  0.00     0.265 C 
BRANCH  35  36
ATOM     36  C   UNL     1      -2.877 -18.743 -42.466  1.00  0.00    -0.008 A 
ATOM     37  C   UNL     1      -3.191 -17.698 -43.351  1.00  0.00     0.007 A 
ATOM     38  C   UNL     1      -3.824 -19.115 -41.502  1.00  0.00     0.046 A 
ATOM     39  C   UNL     1      -4.430 -17.052 -43.289  1.00  0.00     0.003 A 
ATOM     40  C   UNL     1      -5.054 -18.466 -41.449  1.00  0.00     0.123 A 
ATOM     41  C   UNL     1      -5.365 -17.440 -42.334  1.00  0.00     0.039 A 
ATOM     42  F   UNL     1      -5.949 -18.831 -40.521  1.00  0.00    -0.207 F 
ENDBRANCH  35  36
ENDBRANCH  34  35
ENDBRANCH  32  34
ENDBRANCH  25  27
ENDBRANCH   8  25
TORSDOF 11
ENDMDL
MODEL 10
REMARK VINA RESULT:    -8.369      4.581      8.935
REMARK INTER + INTRA:         -16.439
REMARK INTER:                 -13.877
REMARK INTRA:                  -2.562
REMARK UNBOUND:                -2.689
REMARK SMILES CS(=O)(=O)CCNCc1ccc(-c2ccc3ncnc(Nc4ccc(OCc5cccc(F)c5)c(Cl)c4)c3c2)o1
REMARK SMILES IDX 13 1 14 2 15 3 16 4 17 5 18 6 19 7 20 8 38 9 39 10 12 11
REMARK SMILES IDX 9 12 10 13 40 14 11 15 8 16 7 17 6 19 5 20 2 21 3 22 4 23
REMARK SMILES IDX 1 24 21 25 22 27 23 28 37 29 24 30 35 31 25 32 36 33 26 34
REMARK SMILES IDX 27 35 28 36 29 37 34 38 30 39 32 40 31 41 33 42
REMARK H PARENT 7 18 21 26
ROOT
ATOM      1  C   UNL     1       2.749  -8.191 -44.429  1.00  0.00     0.018 A 
ATOM      2  C   UNL     1       1.959  -7.044 -44.524  1.00  0.00     0.014 A 
ATOM      3  C   UNL     1       0.629  -7.125 -44.958  1.00  0.00     0.030 A 
ATOM      4  C   UNL     1       0.046  -8.333 -45.316  1.00  0.00     0.076 A 
ATOM      5  N   UNL     1      -1.230  -8.336 -45.712  1.00  0.00    -0.236 NA
ATOM      6  C   UNL     1      -1.755  -9.522 -46.034  1.00  0.00     0.224 A 
ATOM      7  N   UNL     1      -1.123 -10.699 -46.009  1.00  0.00    -0.219 NA
ATOM      8  C   UNL     1       0.166 -10.685 -45.627  1.00  0.00     0.141 A 
ATOM      9  C   UNL     1       0.822  -9.497 -45.245  1.00  0.00     0.044 A 
ATOM     10  C   UNL     1       2.168  -9.412 -44.791  1.00  0.00     0.026 A 
ENDROOT
BRANCH   1  11
ATOM     11  C   UNL     1       4.132  -8.130 -43.960  1.00  0.00     0.134 A 
ATOM     12  C   UNL     1       6.182  -8.930 -43.806  1.00  0.00     0.118 A 
ATOM     13  C   UNL     1       6.177  -7.746 -43.099  1.00  0.00     0.047 A 
ATOM     14  O   UNL     1       4.942  -9.171 -44.327  1.00  0.00    -0.460 OA
ATOM     15  C   UNL     1       4.861  -7.233 -43.198  1.00  0.00     0.051 A 
BRANCH  12  16
ATOM     16  C   UNL     1       7.233  -9.942 -44.092  1.00  0.00     0.157 C 
BRANCH  16  17
ATOM     17  N   UNL     1       6.795 -11.264 -43.621  1.00  0.00    -0.309 NA
ATOM     18  H   UNL     1       5.871 -11.153 -43.190  1.00  0.00     0.123 HD
BRANCH  17  19
ATOM     19  C   UNL     1       6.751 -12.241 -44.712  1.00  0.00     0.097 C 
BRANCH  19  20
ATOM     20  C   UNL     1       6.207 -13.578 -44.223  1.00  0.00     0.152 C 
BRANCH  20  21
ATOM     21  S   UNL     1       4.433 -13.717 -44.386  1.00  0.00     0.148 S 
ATOM     22  O   UNL     1       3.932 -14.603 -43.350  1.00  0.00    -0.229 OA
ATOM     23  O   UNL     1       3.900 -12.375 -44.529  1.00  0.00    -0.229 OA
ATOM     24  C   UNL     1       4.205 -14.526 -45.954  1.00  0.00     0.158 C 
ENDBRANCH  20  21
ENDBRANCH  19  20
ENDBRANCH  17  19
ENDBRANCH  16  17
ENDBRANCH  12  16
ENDBRANCH   1  11
BRANCH   8  25
ATOM     25  N   UNL     1       0.907 -11.900 -45.635  1.00  0.00    -0.340 N 
ATOM     26  H   UNL     1       1.393 -11.970 -46.523  1.00  0.00     0.168 HD
BRANCH  25  27
ATOM     27  C   UNL     1       0.518 -13.170 -45.155  1.00  0.00     0.041 A 
ATOM     28  C   UNL     1       0.433 -13.473 -43.792  1.00  0.00     0.030 A 
ATOM     29  C   UNL     1       0.349 -14.219 -46.070  1.00  0.00     0.050 A 
ATOM     30  C   UNL     1       0.130 -14.768 -43.346  1.00  0.00     0.050 A 
ATOM     31  C   UNL     1       0.049 -15.515 -45.631  1.00  0.00     0.085 A 
ATOM     32  C   UNL     1      -0.064 -15.803 -44.262  1.00  0.00     0.138 A 
ATOM     33  Cl  UNL     1      -0.165 -16.744 -46.834  1.00  0.00    -0.080 Cl
BRANCH  32  34
ATOM     34  O   UNL     1      -0.356 -17.097 -43.927  1.00  0.00    -0.487 OA
BRANCH  34  35
ATOM     35  C   UNL     1      -1.201 -17.320 -42.801  1.00  0.00     0.265 C 
BRANCH  35  36
ATOM     36  C   UNL     1      -0.860 -18.654 -42.175  1.00  0.00    -0.008 A 
ATOM     37  C   UNL     1       0.418 -18.893 -41.640  1.00  0.00     0.007 A 
ATOM     38  C   UNL     1      -1.800 -19.693 -42.162  1.00  0.00     0.046 A 
ATOM     39  C   UNL     1       0.743 -20.136 -41.089  1.00  0.00     0.003 A 
ATOM     40  C   UNL     1      -1.465 -20.926 -41.611  1.00  0.00     0.123 A 
ATOM     41  C   UNL     1      -0.204 -21.156 -41.074  1.00  0.00     0.039 A 
ATOM     42  F   UNL     1      -2.373 -21.912 -41.608  1.00  0.00    -0.207 F 
ENDBRANCH  35  36
ENDBRANCH  34  35
ENDBRANCH  32  34
ENDBRANCH  25  27
ENDBRANCH   8  25
TORSDOF 11
ENDMDL
MODEL 11
REMARK VINA RESULT:    -8.343      1.614      2.516
REMARK INTER + INTRA:         -16.396
REMARK INTER:                 -13.747
REMARK INTRA:                  -2.649
REMARK UNBOUND:                -2.689
REMARK SMILES CS(=O)(=O)CCNCc1ccc(-c2ccc3ncnc(Nc4ccc(OCc5cccc(F)c5)c(Cl)c4)c3c2)o1
REMARK SMILES IDX 13 1 14 2 15 3 16 4 17 5 18 6 19 7 20 8 38 9 39 10 12 11
REMARK SMILES IDX 9 12 10 13 40 14 11 15 8 16 7 17 6 19 5 20 2 21 3 22 4 23
REMARK SMILES IDX 1 24 21 25 22 27 23 28 37 29 24 30 35 31 25 32 36 33 26 34
REMARK SMILES IDX 27 35 28 36 29 37 34 38 30 39 32 40 31 41 33 42
REMARK H PARENT 7 18 21 26
ROOT
ATOM      1  C   UNL     1       0.278 -16.376 -43.198  1.00  0.00     0.018 A 
ATOM      2  C   UNL     1      -0.890 -16.682 -43.900  1.00  0.00     0.014 A 
ATOM      3  C   UNL     1      -1.600 -17.859 -43.628  1.00  0.00     0.030 A 
ATOM      4  C   UNL     1      -1.178 -18.766 -42.667  1.00  0.00     0.076 A 
ATOM      5  N   UNL     1      -1.910 -19.862 -42.455  1.00  0.00    -0.236 NA
ATOM      6  C   UNL     1      -1.474 -20.701 -41.511  1.00  0.00     0.224 A 
ATOM      7  N   UNL     1      -0.372 -20.554 -40.771  1.00  0.00    -0.219 NA
ATOM      8  C   UNL     1       0.370 -19.457 -41.002  1.00  0.00     0.141 A 
ATOM      9  C   UNL     1      -0.001 -18.490 -41.959  1.00  0.00     0.044 A 
ATOM     10  C   UNL     1       0.711 -17.288 -42.229  1.00  0.00     0.026 A 
ENDROOT
BRANCH   1  11
ATOM     11  C   UNL     1       1.022 -15.143 -43.453  1.00  0.00     0.134 A 
ATOM     12  C   UNL     1       1.252 -12.951 -43.396  1.00  0.00     0.118 A 
ATOM     13  C   UNL     1       2.409 -13.444 -43.960  1.00  0.00     0.047 A 
ATOM     14  O   UNL     1       0.404 -13.977 -43.090  1.00  0.00    -0.460 OA
ATOM     15  C   UNL     1       2.262 -14.852 -43.996  1.00  0.00     0.051 A 
BRANCH  12  16
ATOM     16  C   UNL     1       0.780 -11.578 -43.076  1.00  0.00     0.157 C 
BRANCH  16  17
ATOM     17  N   UNL     1      -0.422 -11.267 -43.862  1.00  0.00    -0.309 NA
ATOM     18  H   UNL     1      -0.900 -10.481 -43.407  1.00  0.00     0.123 HD
BRANCH  17  19
ATOM     19  C   UNL     1      -0.094 -10.946 -45.253  1.00  0.00     0.097 C 
BRANCH  19  20
ATOM     20  C   UNL     1      -0.826  -9.690 -45.710  1.00  0.00     0.152 C 
BRANCH  20  21
ATOM     21  S   UNL     1      -2.518 -10.000 -46.194  1.00  0.00     0.148 S 
ATOM     22  O   UNL     1      -2.531 -10.549 -47.539  1.00  0.00    -0.229 OA
ATOM     23  O   UNL     1      -3.163 -10.708 -45.103  1.00  0.00    -0.229 OA
ATOM     24  C   UNL     1      -3.252  -8.381 -46.258  1.00  0.00     0.158 C 
ENDBRANCH  20  21
ENDBRANCH  19  20
ENDBRANCH  17  19
ENDBRANCH  16  17
ENDBRANCH  12  16
ENDBRANCH   1  11
BRANCH   8  25
ATOM     25  N   UNL     1       1.585 -19.274 -40.284  1.00  0.00    -0.340 N 
ATOM     26  H   UNL     1       1.424 -18.579 -39.561  1.00  0.00     0.168 HD
BRANCH  25  27
ATOM     27  C   UNL     1       2.902 -19.201 -40.788  1.00  0.00     0.041 A 
ATOM     28  C   UNL     1       3.781 -18.162 -40.466  1.00  0.00     0.030 A 
ATOM     29  C   UNL     1       3.307 -20.120 -41.766  1.00  0.00     0.050 A 
ATOM     30  C   UNL     1       5.052 -18.068 -41.051  1.00  0.00     0.050 A 
ATOM     31  C   UNL     1       4.574 -20.031 -42.357  1.00  0.00     0.085 A 
ATOM     32  C   UNL     1       5.461 -19.002 -42.005  1.00  0.00     0.138 A 
ATOM     33  Cl  UNL     1       4.997 -21.224 -43.540  1.00  0.00    -0.080 Cl
BRANCH  32  34
ATOM     34  O   UNL     1       6.676 -18.992 -42.636  1.00  0.00    -0.487 OA
BRANCH  34  35
ATOM     35  C   UNL     1       7.216 -17.732 -43.024  1.00  0.00     0.265 C 
BRANCH  35  36
ATOM     36  C   UNL     1       6.473 -17.221 -44.238  1.00  0.00    -0.008 A 
ATOM     37  C   UNL     1       6.037 -18.103 -45.240  1.00  0.00     0.007 A 
ATOM     38  C   UNL     1       6.250 -15.847 -44.407  1.00  0.00     0.046 A 
ATOM     39  C   UNL     1       5.377 -17.627 -46.378  1.00  0.00     0.003 A 
ATOM     40  C   UNL     1       5.592 -15.385 -45.543  1.00  0.00     0.123 A 
ATOM     41  C   UNL     1       5.153 -16.261 -46.527  1.00  0.00     0.039 A 
ATOM     42  F   UNL     1       5.387 -14.069 -45.692  1.00  0.00    -0.207 F 
ENDBRANCH  35  36
ENDBRANCH  34  35
ENDBRANCH  32  34
ENDBRANCH  25  27
ENDBRANCH   8  25
TORSDOF 11
ENDMDL
MODEL 12
REMARK VINA RESULT:    -8.335      3.908      7.880
REMARK INTER + INTRA:         -16.384
REMARK INTER:                 -14.127
REMARK INTRA:                  -2.257
REMARK UNBOUND:                -2.689
REMARK SMILES CS(=O)(=O)CCNCc1ccc(-c2ccc3ncnc(Nc4ccc(OCc5cccc(F)c5)c(Cl)c4)c3c2)o1
REMARK SMILES IDX 13 1 14 2 15 3 16 4 17 5 18 6 19 7 20 8 38 9 39 10 12 11
REMARK SMILES IDX 9 12 10 13 40 14 11 15 8 16 7 17 6 19 5 20 2 21 3 22 4 23
REMARK SMILES IDX 1 24 21 25 22 27 23 28 37 29 24 30 35 31 25 32 36 33 26 34
REMARK SMILES IDX 27 35 28 36 29 37 34 38 30 39 32 40 31 41 33 42
REMARK H PARENT 7 18 21 26
ROOT
ATOM      1  C   UNL     1       2.809 -19.083 -40.910  1.00  0.00     0.018 A 
ATOM      2  C   UNL     1       2.716 -20.465 -40.733  1.00  0.00     0.014 A 
ATOM      3  C   UNL     1       1.522 -21.143 -41.013  1.00  0.00     0.030 A 
ATOM      4  C   UNL     1       0.390 -20.481 -41.467  1.00  0.00     0.076 A 
ATOM      5  N   UNL     1      -0.710 -21.194 -41.723  1.00  0.00    -0.236 NA
ATOM      6  C   UNL     1      -1.772 -20.517 -42.171  1.00  0.00     0.224 A 
ATOM      7  N   UNL     1      -1.841 -19.199 -42.375  1.00  0.00    -0.219 NA
ATOM      8  C   UNL     1      -0.735 -18.485 -42.098  1.00  0.00     0.141 A 
ATOM      9  C   UNL     1       0.453 -19.092 -41.639  1.00  0.00     0.044 A 
ATOM     10  C   UNL     1       1.670 -18.408 -41.365  1.00  0.00     0.026 A 
ENDROOT
BRANCH   1  11
ATOM     11  C   UNL     1       4.051 -18.360 -40.643  1.00  0.00     0.134 A 
ATOM     12  C   UNL     1       5.583 -16.853 -41.142  1.00  0.00     0.118 A 
ATOM     13  C   UNL     1       5.979 -17.426 -39.951  1.00  0.00     0.047 A 
ATOM     14  O   UNL     1       4.415 -17.419 -41.568  1.00  0.00    -0.460 OA
ATOM     15  C   UNL     1       4.996 -18.392 -39.631  1.00  0.00     0.051 A 
BRANCH  12  16
ATOM     16  C   UNL     1       6.161 -15.788 -42.003  1.00  0.00     0.157 C 
BRANCH  16  17
ATOM     17  N   UNL     1       6.765 -14.742 -41.165  1.00  0.00    -0.309 NA
ATOM     18  H   UNL     1       7.666 -15.095 -40.824  1.00  0.00     0.123 HD
BRANCH  17  19
ATOM     19  C   UNL     1       6.939 -13.488 -41.903  1.00  0.00     0.097 C 
BRANCH  19  20
ATOM     20  C   UNL     1       8.182 -13.542 -42.783  1.00  0.00     0.152 C 
BRANCH  20  21
ATOM     21  S   UNL     1       9.638 -14.098 -41.910  1.00  0.00     0.148 S 
ATOM     22  O   UNL     1       9.703 -13.424 -40.625  1.00  0.00    -0.229 OA
ATOM     23  O   UNL     1       9.666 -15.547 -41.985  1.00  0.00    -0.229 OA
ATOM     24  C   UNL     1      10.989 -13.509 -42.905  1.00  0.00     0.158 C 
ENDBRANCH  20  21
ENDBRANCH  19  20
ENDBRANCH  17  19
ENDBRANCH  16  17
ENDBRANCH  12  16
ENDBRANCH   1  11
BRANCH   8  25
ATOM     25  N   UNL     1      -0.765 -17.070 -42.242  1.00  0.00    -0.340 N 
ATOM     26  H   UNL     1      -1.655 -16.734 -41.887  1.00  0.00     0.168 HD
BRANCH  25  27
ATOM     27  C   UNL     1      -0.311 -16.287 -43.326  1.00  0.00     0.041 A 
ATOM     28  C   UNL     1      -0.825 -16.415 -44.621  1.00  0.00     0.030 A 
ATOM     29  C   UNL     1       0.798 -15.450 -43.142  1.00  0.00     0.050 A 
ATOM     30  C   UNL     1      -0.293 -15.687 -45.696  1.00  0.00     0.050 A 
ATOM     31  C   UNL     1       1.336 -14.723 -44.211  1.00  0.00     0.085 A 
ATOM     32  C   UNL     1       0.795 -14.834 -45.502  1.00  0.00     0.138 A 
ATOM     33  Cl  UNL     1       2.694 -13.696 -43.886  1.00  0.00    -0.080 Cl
BRANCH  32  34
ATOM     34  O   UNL     1       1.388 -14.088 -46.485  1.00  0.00    -0.487 OA
BRANCH  34  35
ATOM     35  C   UNL     1       0.611 -13.069 -47.109  1.00  0.00     0.265 C 
BRANCH  35  36
ATOM     36  C   UNL     1       0.400 -11.932 -46.134  1.00  0.00    -0.008 A 
ATOM     37  C   UNL     1      -0.893 -11.566 -45.723  1.00  0.00     0.007 A 
ATOM     38  C   UNL     1       1.492 -11.191 -45.662  1.00  0.00     0.046 A 
ATOM     39  C   UNL     1      -1.090 -10.495 -44.846  1.00  0.00     0.003 A 
ATOM     40  C   UNL     1       1.284 -10.127 -44.789  1.00  0.00     0.123 A 
ATOM     41  C   UNL     1       0.005  -9.774 -44.376  1.00  0.00     0.039 A 
ATOM     42  F   UNL     1       2.337  -9.426 -44.347  1.00  0.00    -0.207 F 
ENDBRANCH  35  36
ENDBRANCH  34  35
ENDBRANCH  32  34
ENDBRANCH  25  27
ENDBRANCH   8  25
TORSDOF 11
ENDMDL
MODEL 13
REMARK VINA RESULT:    -8.298      4.669      7.579
REMARK INTER + INTRA:         -16.322
REMARK INTER:                 -13.603
REMARK INTRA:                  -2.719
REMARK UNBOUND:                -2.689
REMARK SMILES CS(=O)(=O)CCNCc1ccc(-c2ccc3ncnc(Nc4ccc(OCc5cccc(F)c5)c(Cl)c4)c3c2)o1
REMARK SMILES IDX 13 1 14 2 15 3 16 4 17 5 18 6 19 7 20 8 38 9 39 10 12 11
REMARK SMILES IDX 9 12 10 13 40 14 11 15 8 16 7 17 6 19 5 20 2 21 3 22 4 23
REMARK SMILES IDX 1 24 21 25 22 27 23 28 37 29 24 30 35 31 25 32 36 33 26 34
REMARK SMILES IDX 27 35 28 36 29 37 34 38 30 39 32 40 31 41 33 42
REMARK H PARENT 7 18 21 26
ROOT
ATOM      1  C   UNL     1       1.488  -9.409 -45.005  1.00  0.00     0.018 A 
ATOM      2  C   UNL     1       0.144  -9.260 -45.352  1.00  0.00     0.014 A 
ATOM      3  C   UNL     1      -0.589 -10.344 -45.856  1.00  0.00     0.030 A 
ATOM      4  C   UNL     1      -0.019 -11.595 -46.037  1.00  0.00     0.076 A 
ATOM      5  N   UNL     1      -0.780 -12.584 -46.512  1.00  0.00    -0.236 NA
ATOM      6  C   UNL     1      -0.194 -13.776 -46.658  1.00  0.00     0.224 A 
ATOM      7  N   UNL     1       1.081 -14.068 -46.385  1.00  0.00    -0.219 NA
ATOM      8  C   UNL     1       1.846 -13.064 -45.924  1.00  0.00     0.141 A 
ATOM      9  C   UNL     1       1.333 -11.767 -45.710  1.00  0.00     0.044 A 
ATOM     10  C   UNL     1       2.071 -10.669 -45.187  1.00  0.00     0.026 A 
ENDROOT
BRANCH   1  11
ATOM     11  C   UNL     1       2.264  -8.297 -44.459  1.00  0.00     0.134 A 
ATOM     12  C   UNL     1       3.858  -7.467 -43.181  1.00  0.00     0.118 A 
ATOM     13  C   UNL     1       3.274  -6.391 -43.814  1.00  0.00     0.047 A 
ATOM     14  O   UNL     1       3.247  -8.627 -43.565  1.00  0.00    -0.460 OA
ATOM     15  C   UNL     1       2.251  -6.924 -44.635  1.00  0.00     0.051 A 
BRANCH  12  16
ATOM     16  C   UNL     1       4.975  -7.592 -42.206  1.00  0.00     0.157 C 
BRANCH  16  17
ATOM     17  N   UNL     1       5.866  -8.691 -42.606  1.00  0.00    -0.309 NA
ATOM     18  H   UNL     1       5.279  -9.485 -42.883  1.00  0.00     0.123 HD
BRANCH  17  19
ATOM     19  C   UNL     1       6.761  -8.294 -43.697  1.00  0.00     0.097 C 
BRANCH  19  20
ATOM     20  C   UNL     1       7.417  -9.514 -44.332  1.00  0.00     0.152 C 
BRANCH  20  21
ATOM     21  S   UNL     1       6.298 -10.462 -45.352  1.00  0.00     0.148 S 
ATOM     22  O   UNL     1       7.073 -11.257 -46.289  1.00  0.00    -0.229 OA
ATOM     23  O   UNL     1       5.333 -11.094 -44.472  1.00  0.00    -0.229 OA
ATOM     24  C   UNL     1       5.413  -9.232 -46.282  1.00  0.00     0.158 C 
ENDBRANCH  20  21
ENDBRANCH  19  20
ENDBRANCH  17  19
ENDBRANCH  16  17
ENDBRANCH  12  16
ENDBRANCH   1  11
BRANCH   8  25
ATOM     25  N   UNL     1       3.226 -13.300 -45.668  1.00  0.00    -0.340 N 
ATOM     26  H   UNL     1       3.751 -13.036 -46.496  1.00  0.00     0.168 HD
BRANCH  25  27
ATOM     27  C   UNL     1       3.822 -14.394 -45.003  1.00  0.00     0.041 A 
ATOM     28  C   UNL     1       3.845 -14.512 -43.609  1.00  0.00     0.030 A 
ATOM     29  C   UNL     1       4.549 -15.330 -45.751  1.00  0.00     0.050 A 
ATOM     30  C   UNL     1       4.522 -15.563 -42.973  1.00  0.00     0.050 A 
ATOM     31  C   UNL     1       5.229 -16.381 -45.123  1.00  0.00     0.085 A 
ATOM     32  C   UNL     1       5.222 -16.509 -43.725  1.00  0.00     0.138 A 
ATOM     33  Cl  UNL     1       6.083 -17.504 -46.128  1.00  0.00    -0.080 Cl
BRANCH  32  34
ATOM     34  O   UNL     1       5.916 -17.565 -43.199  1.00  0.00    -0.487 OA
BRANCH  34  35
ATOM     35  C   UNL     1       5.822 -17.793 -41.795  1.00  0.00     0.265 C 
BRANCH  35  36
ATOM     36  C   UNL     1       4.683 -18.748 -41.518  1.00  0.00    -0.008 A 
ATOM     37  C   UNL     1       4.562 -19.951 -42.234  1.00  0.00     0.007 A 
ATOM     38  C   UNL     1       3.699 -18.424 -40.574  1.00  0.00     0.046 A 
ATOM     39  C   UNL     1       3.492 -20.820 -42.000  1.00  0.00     0.003 A 
ATOM     40  C   UNL     1       2.638 -19.296 -40.350  1.00  0.00     0.123 A 
ATOM     41  C   UNL     1       2.527 -20.490 -41.052  1.00  0.00     0.039 A 
ATOM     42  F   UNL     1       1.703 -18.973 -39.446  1.00  0.00    -0.207 F 
ENDBRANCH  35  36
ENDBRANCH  34  35
ENDBRANCH  32  34
ENDBRANCH  25  27
ENDBRANCH   8  25
TORSDOF 11
ENDMDL
MODEL 14
REMARK VINA RESULT:    -8.291      6.249     10.584
REMARK INTER + INTRA:         -16.311
REMARK INTER:                 -13.491
REMARK INTRA:                  -2.820
REMARK UNBOUND:                -2.689
REMARK SMILES CS(=O)(=O)CCNCc1ccc(-c2ccc3ncnc(Nc4ccc(OCc5cccc(F)c5)c(Cl)c4)c3c2)o1
REMARK SMILES IDX 13 1 14 2 15 3 16 4 17 5 18 6 19 7 20 8 38 9 39 10 12 11
REMARK SMILES IDX 9 12 10 13 40 14 11 15 8 16 7 17 6 19 5 20 2 21 3 22 4 23
REMARK SMILES IDX 1 24 21 25 22 27 23 28 37 29 24 30 35 31 25 32 36 33 26 34
REMARK SMILES IDX 27 35 28 36 29 37 34 38 30 39 32 40 31 41 33 42
REMARK H PARENT 7 18 21 26
ROOT
ATOM      1  C   UNL     1      -0.887 -10.322 -45.276  1.00  0.00     0.018 A 
ATOM      2  C   UNL     1      -1.992 -10.369 -44.423  1.00  0.00     0.014 A 
ATOM      3  C   UNL     1      -2.497  -9.198 -43.842  1.00  0.00     0.030 A 
ATOM      4  C   UNL     1      -1.926  -7.955 -44.078  1.00  0.00     0.076 A 
ATOM      5  N   UNL     1      -2.467  -6.881 -43.497  1.00  0.00    -0.236 NA
ATOM      6  C   UNL     1      -1.893  -5.704 -43.764  1.00  0.00     0.224 A 
ATOM      7  N   UNL     1      -0.827  -5.502 -44.542  1.00  0.00    -0.219 NA
ATOM      8  C   UNL     1      -0.277  -6.590 -45.109  1.00  0.00     0.141 A 
ATOM      9  C   UNL     1      -0.807  -7.883 -44.918  1.00  0.00     0.044 A 
ATOM     10  C   UNL     1      -0.304  -9.072 -45.516  1.00  0.00     0.026 A 
ENDROOT
BRANCH   1  11
ATOM     11  C   UNL     1      -0.357 -11.529 -45.907  1.00  0.00     0.134 A 
ATOM     12  C   UNL     1       1.019 -13.251 -45.987  1.00  0.00     0.118 A 
ATOM     13  C   UNL     1       0.227 -13.339 -47.113  1.00  0.00     0.047 A 
ATOM     14  O   UNL     1       0.672 -12.152 -45.254  1.00  0.00    -0.460 OA
ATOM     15  C   UNL     1      -0.656 -12.234 -47.061  1.00  0.00     0.051 A 
BRANCH  12  16
ATOM     16  C   UNL     1       2.124 -14.089 -45.451  1.00  0.00     0.157 C 
BRANCH  16  17
ATOM     17  N   UNL     1       3.384 -13.745 -46.126  1.00  0.00    -0.309 NA
ATOM     18  H   UNL     1       3.150 -13.246 -46.991  1.00  0.00     0.123 HD
BRANCH  17  19
ATOM     19  C   UNL     1       4.254 -12.933 -45.271  1.00  0.00     0.097 C 
BRANCH  19  20
ATOM     20  C   UNL     1       4.960 -13.799 -44.235  1.00  0.00     0.152 C 
BRANCH  20  21
ATOM     21  S   UNL     1       6.039 -15.024 -44.961  1.00  0.00     0.148 S 
ATOM     22  O   UNL     1       6.085 -14.819 -46.399  1.00  0.00    -0.229 OA
ATOM     23  O   UNL     1       7.263 -15.047 -44.181  1.00  0.00    -0.229 OA
ATOM     24  C   UNL     1       5.209 -16.567 -44.656  1.00  0.00     0.158 C 
ENDBRANCH  20  21
ENDBRANCH  19  20
ENDBRANCH  17  19
ENDBRANCH  16  17
ENDBRANCH  12  16
ENDBRANCH   1  11
BRANCH   8  25
ATOM     25  N   UNL     1       0.894  -6.445 -45.904  1.00  0.00    -0.340 N 
ATOM     26  H   UNL     1       0.781  -7.008 -46.741  1.00  0.00     0.168 HD
BRANCH  25  27
ATOM     27  C   UNL     1       2.242  -6.406 -45.485  1.00  0.00     0.041 A 
ATOM     28  C   UNL     1       3.313  -6.313 -46.381  1.00  0.00     0.030 A 
ATOM     29  C   UNL     1       2.539  -6.615 -44.131  1.00  0.00     0.050 A 
ATOM     30  C   UNL     1       4.644  -6.366 -45.941  1.00  0.00     0.050 A 
ATOM     31  C   UNL     1       3.866  -6.672 -43.685  1.00  0.00     0.085 A 
ATOM     32  C   UNL     1       4.934  -6.547 -44.588  1.00  0.00     0.138 A 
ATOM     33  Cl  UNL     1       4.138  -6.911 -41.991  1.00  0.00    -0.080 Cl
BRANCH  32  34
ATOM     34  O   UNL     1       6.196  -6.618 -44.063  1.00  0.00    -0.487 OA
BRANCH  34  35
ATOM     35  C   UNL     1       7.184  -7.337 -44.796  1.00  0.00     0.265 C 
BRANCH  35  36
ATOM     36  C   UNL     1       7.291  -8.742 -44.248  1.00  0.00    -0.008 A 
ATOM     37  C   UNL     1       7.224  -8.983 -42.865  1.00  0.00     0.007 A 
ATOM     38  C   UNL     1       7.510  -9.826 -45.109  1.00  0.00     0.046 A 
ATOM     39  C   UNL     1       7.354 -10.278 -42.355  1.00  0.00     0.003 A 
ATOM     40  C   UNL     1       7.638 -11.111 -44.591  1.00  0.00     0.123 A 
ATOM     41  C   UNL     1       7.560 -11.346 -43.224  1.00  0.00     0.039 A 
ATOM     42  F   UNL     1       7.849 -12.137 -45.427  1.00  0.00    -0.207 F 
ENDBRANCH  35  36
ENDBRANCH  34  35
ENDBRANCH  32  34
ENDBRANCH  25  27
ENDBRANCH   8  25
TORSDOF 11
ENDMDL
MODEL 15
REMARK VINA RESULT:    -8.278      5.062      9.925
REMARK INTER + INTRA:         -16.290
REMARK INTER:                 -14.634
REMARK INTRA:                  -1.657
REMARK UNBOUND:                -2.689
REMARK SMILES CS(=O)(=O)CCNCc1ccc(-c2ccc3ncnc(Nc4ccc(OCc5cccc(F)c5)c(Cl)c4)c3c2)o1
REMARK SMILES IDX 13 1 14 2 15 3 16 4 17 5 18 6 19 7 20 8 38 9 39 10 12 11
REMARK SMILES IDX 9 12 10 13 40 14 11 15 8 16 7 17 6 19 5 20 2 21 3 22 4 23
REMARK SMILES IDX 1 24 21 25 22 27 23 28 37 29 24 30 35 31 25 32 36 33 26 34
REMARK SMILES IDX 27 35 28 36 29 37 34 38 30 39 32 40 31 41 33 42
REMARK H PARENT 7 18 21 26
ROOT
ATOM      1  C   UNL     1       3.709  -8.269 -44.797  1.00  0.00     0.018 A 
ATOM      2  C   UNL     1       3.088  -7.021 -44.711  1.00  0.00     0.014 A 
ATOM      3  C   UNL     1       1.699  -6.903 -44.852  1.00  0.00     0.030 A 
ATOM      4  C   UNL     1       0.888  -8.003 -45.089  1.00  0.00     0.076 A 
ATOM      5  N   UNL     1      -0.429  -7.816 -45.204  1.00  0.00    -0.236 NA
ATOM      6  C   UNL     1      -1.173  -8.905 -45.418  1.00  0.00     0.224 A 
ATOM      7  N   UNL     1      -0.725 -10.157 -45.540  1.00  0.00    -0.219 NA
ATOM      8  C   UNL     1       0.604 -10.336 -45.441  1.00  0.00     0.141 A 
ATOM      9  C   UNL     1       1.488  -9.265 -45.196  1.00  0.00     0.044 A 
ATOM     10  C   UNL     1       2.898  -9.384 -45.039  1.00  0.00     0.026 A 
ENDROOT
BRANCH   1  11
ATOM     11  C   UNL     1       5.155  -8.417 -44.633  1.00  0.00     0.134 A 
ATOM     12  C   UNL     1       6.984  -9.630 -44.421  1.00  0.00     0.118 A 
ATOM     13  C   UNL     1       7.390  -8.313 -44.390  1.00  0.00     0.047 A 
ATOM     14  O   UNL     1       5.627  -9.700 -44.564  1.00  0.00    -0.460 OA
ATOM     15  C   UNL     1       6.216  -7.535 -44.525  1.00  0.00     0.051 A 
BRANCH  12  16
ATOM     16  C   UNL     1       7.713 -10.924 -44.333  1.00  0.00     0.157 C 
BRANCH  16  17
ATOM     17  N   UNL     1       7.265 -11.670 -43.149  1.00  0.00    -0.309 NA
ATOM     18  H   UNL     1       7.764 -12.565 -43.135  1.00  0.00     0.123 HD
BRANCH  17  19
ATOM     19  C   UNL     1       7.499 -10.919 -41.913  1.00  0.00     0.097 C 
BRANCH  19  20
ATOM     20  C   UNL     1       7.551 -11.853 -40.710  1.00  0.00     0.152 C 
BRANCH  20  21
ATOM     21  S   UNL     1       8.810 -13.112 -40.852  1.00  0.00     0.148 S 
ATOM     22  O   UNL     1       9.571 -12.884 -42.068  1.00  0.00    -0.229 OA
ATOM     23  O   UNL     1       9.483 -13.204 -39.569  1.00  0.00    -0.229 OA
ATOM     24  C   UNL     1       7.892 -14.621 -41.057  1.00  0.00     0.158 C 
ENDBRANCH  20  21
ENDBRANCH  19  20
ENDBRANCH  17  19
ENDBRANCH  16  17
ENDBRANCH  12  16
ENDBRANCH   1  11
BRANCH   8  25
ATOM     25  N   UNL     1       1.147 -11.640 -45.618  1.00  0.00    -0.340 N 
ATOM     26  H   UNL     1       1.394 -11.750 -46.596  1.00  0.00     0.168 HD
BRANCH  25  27
ATOM     27  C   UNL     1       0.710 -12.858 -45.053  1.00  0.00     0.041 A 
ATOM     28  C   UNL     1       0.683 -13.087 -43.673  1.00  0.00     0.030 A 
ATOM     29  C   UNL     1       0.428 -13.938 -45.901  1.00  0.00     0.050 A 
ATOM     30  C   UNL     1       0.328 -14.336 -43.144  1.00  0.00     0.050 A 
ATOM     31  C   UNL     1       0.076 -15.189 -45.379  1.00  0.00     0.085 A 
ATOM     32  C   UNL     1       0.022 -15.402 -43.993  1.00  0.00     0.138 A 
ATOM     33  Cl  UNL     1      -0.277 -16.461 -46.503  1.00  0.00    -0.080 Cl
BRANCH  32  34
ATOM     34  O   UNL     1      -0.328 -16.657 -43.575  1.00  0.00    -0.487 OA
BRANCH  34  35
ATOM     35  C   UNL     1      -1.707 -16.917 -43.327  1.00  0.00     0.265 C 
BRANCH  35  36
ATOM     36  C   UNL     1      -1.851 -18.272 -42.671  1.00  0.00    -0.008 A 
ATOM     37  C   UNL     1      -0.721 -18.988 -42.240  1.00  0.00     0.007 A 
ATOM     38  C   UNL     1      -3.116 -18.860 -42.526  1.00  0.00     0.046 A 
ATOM     39  C   UNL     1      -0.852 -20.254 -41.661  1.00  0.00     0.003 A 
ATOM     40  C   UNL     1      -3.234 -20.120 -41.949  1.00  0.00     0.123 A 
ATOM     41  C   UNL     1      -2.115 -20.821 -41.515  1.00  0.00     0.039 A 
ATOM     42  F   UNL     1      -4.449 -20.671 -41.819  1.00  0.00    -0.207 F 
ENDBRANCH  35  36
ENDBRANCH  34  35
ENDBRANCH  32  34
ENDBRANCH  25  27
ENDBRANCH   8  25
TORSDOF 11
ENDMDL
MODEL 16
REMARK VINA RESULT:    -8.268      4.019      6.979
REMARK INTER + INTRA:         -16.274
REMARK INTER:                 -14.495
REMARK INTRA:                  -1.778
REMARK UNBOUND:                -2.689
REMARK SMILES CS(=O)(=O)CCNCc1ccc(-c2ccc3ncnc(Nc4ccc(OCc5cccc(F)c5)c(Cl)c4)c3c2)o1
REMARK SMILES IDX 13 1 14 2 15 3 16 4 17 5 18 6 19 7 20 8 38 9 39 10 12 11
REMARK SMILES IDX 9 12 10 13 40 14 11 15 8 16 7 17 6 19 5 20 2 21 3 22 4 23
REMARK SMILES IDX 1 24 21 25 22 27 23 28 37 29 24 30 35 31 25 32 36 33 26 34
REMARK SMILES IDX 27 35 28 36 29 37 34 38 30 39 32 40 31 41 33 42
REMARK H PARENT 7 18 21 26
ROOT
ATOM      1  C   UNL     1       1.886 -19.207 -41.094  1.00  0.00     0.018 A 
ATOM      2  C   UNL     1       1.689 -20.551 -40.770  1.00  0.00     0.014 A 
ATOM      3  C   UNL     1       0.436 -21.153 -40.946  1.00  0.00     0.030 A 
ATOM      4  C   UNL     1      -0.655 -20.449 -41.437  1.00  0.00     0.076 A 
ATOM      5  N   UNL     1      -1.816 -21.091 -41.587  1.00  0.00    -0.236 NA
ATOM      6  C   UNL     1      -2.835 -20.379 -42.076  1.00  0.00     0.224 A 
ATOM      7  N   UNL     1      -2.806 -19.087 -42.416  1.00  0.00    -0.219 NA
ATOM      8  C   UNL     1      -1.638 -18.443 -42.245  1.00  0.00     0.141 A 
ATOM      9  C   UNL     1      -0.487 -19.095 -41.756  1.00  0.00     0.044 A 
ATOM     10  C   UNL     1       0.789 -18.490 -41.588  1.00  0.00     0.026 A 
ENDROOT
BRANCH   1  11
ATOM     11  C   UNL     1       3.190 -18.565 -40.937  1.00  0.00     0.134 A 
ATOM     12  C   UNL     1       4.764 -17.154 -41.567  1.00  0.00     0.118 A 
ATOM     13  C   UNL     1       5.228 -17.760 -40.418  1.00  0.00     0.047 A 
ATOM     14  O   UNL     1       3.529 -17.642 -41.889  1.00  0.00    -0.460 OA
ATOM     15  C   UNL     1       4.217 -18.666 -40.014  1.00  0.00     0.051 A 
BRANCH  12  16
ATOM     16  C   UNL     1       5.329 -16.120 -42.473  1.00  0.00     0.157 C 
BRANCH  16  17
ATOM     17  N   UNL     1       6.762 -16.372 -42.686  1.00  0.00    -0.309 NA
ATOM     18  H   UNL     1       6.880 -16.722 -43.642  1.00  0.00     0.123 HD
BRANCH  17  19
ATOM     19  C   UNL     1       7.564 -15.166 -42.466  1.00  0.00     0.097 C 
BRANCH  19  20
ATOM     20  C   UNL     1       7.466 -14.703 -41.018  1.00  0.00     0.152 C 
BRANCH  20  21
ATOM     21  S   UNL     1       8.143 -13.070 -40.755  1.00  0.00     0.148 S 
ATOM     22  O   UNL     1       7.117 -12.083 -41.042  1.00  0.00    -0.229 OA
ATOM     23  O   UNL     1       8.819 -13.078 -39.471  1.00  0.00    -0.229 OA
ATOM     24  C   UNL     1       9.407 -12.921 -41.997  1.00  0.00     0.158 C 
ENDBRANCH  20  21
ENDBRANCH  19  20
ENDBRANCH  17  19
ENDBRANCH  16  17
ENDBRANCH  12  16
ENDBRANCH   1  11
BRANCH   8  25
ATOM     25  N   UNL     1      -1.560 -17.053 -42.537  1.00  0.00    -0.340 N 
ATOM     26  H   UNL     1      -2.504 -16.702 -42.664  1.00  0.00     0.168 HD
BRANCH  25  27
ATOM     27  C   UNL     1      -0.641 -16.380 -43.371  1.00  0.00     0.041 A 
ATOM     28  C   UNL     1       0.271 -15.435 -42.888  1.00  0.00     0.030 A 
ATOM     29  C   UNL     1      -0.733 -16.548 -44.760  1.00  0.00     0.050 A 
ATOM     30  C   UNL     1       1.111 -14.717 -43.752  1.00  0.00     0.050 A 
ATOM     31  C   UNL     1       0.101 -15.834 -45.628  1.00  0.00     0.085 A 
ATOM     32  C   UNL     1       1.034 -14.909 -45.133  1.00  0.00     0.138 A 
ATOM     33  Cl  UNL     1      -0.068 -16.123 -47.329  1.00  0.00    -0.080 Cl
BRANCH  32  34
ATOM     34  O   UNL     1       1.804 -14.255 -46.056  1.00  0.00    -0.487 OA
BRANCH  34  35
ATOM     35  C   UNL     1       1.823 -12.830 -46.020  1.00  0.00     0.265 C 
BRANCH  35  36
ATOM     36  C   UNL     1       3.220 -12.357 -45.689  1.00  0.00    -0.008 A 
ATOM     37  C   UNL     1       3.510 -10.986 -45.584  1.00  0.00     0.007 A 
ATOM     38  C   UNL     1       4.264 -13.279 -45.530  1.00  0.00     0.046 A 
ATOM     39  C   UNL     1       4.809 -10.546 -45.309  1.00  0.00     0.003 A 
ATOM     40  C   UNL     1       5.552 -12.830 -45.256  1.00  0.00     0.123 A 
ATOM     41  C   UNL     1       5.833 -11.474 -45.143  1.00  0.00     0.039 A 
ATOM     42  F   UNL     1       6.541 -13.724 -45.109  1.00  0.00    -0.207 F 
ENDBRANCH  35  36
ENDBRANCH  34  35
ENDBRANCH  32  34
ENDBRANCH  25  27
ENDBRANCH   8  25
TORSDOF 11
ENDMDL
MODEL 17
REMARK VINA RESULT:    -8.265      3.655      7.508
REMARK INTER + INTRA:         -16.269
REMARK INTER:                 -13.560
REMARK INTRA:                  -2.709
REMARK UNBOUND:                -2.689
REMARK SMILES CS(=O)(=O)CCNCc1ccc(-c2ccc3ncnc(Nc4ccc(OCc5cccc(F)c5)c(Cl)c4)c3c2)o1
REMARK SMILES IDX 13 1 14 2 15 3 16 4 17 5 18 6 19 7 20 8 38 9 39 10 12 11
REMARK SMILES IDX 9 12 10 13 40 14 11 15 8 16 7 17 6 19 5 20 2 21 3 22 4 23
REMARK SMILES IDX 1 24 21 25 22 27 23 28 37 29 24 30 35 31 25 32 36 33 26 34
REMARK SMILES IDX 27 35 28 36 29 37 34 38 30 39 32 40 31 41 33 42
REMARK H PARENT 7 18 21 26
ROOT
ATOM      1  C   UNL     1       1.942 -19.075 -41.262  1.00  0.00     0.018 A 
ATOM      2  C   UNL     1       1.811 -20.412 -40.879  1.00  0.00     0.014 A 
ATOM      3  C   UNL     1       0.571 -21.059 -40.955  1.00  0.00     0.030 A 
ATOM      4  C   UNL     1      -0.571 -20.409 -41.401  1.00  0.00     0.076 A 
ATOM      5  N   UNL     1      -1.717 -21.092 -41.456  1.00  0.00    -0.236 NA
ATOM      6  C   UNL     1      -2.788 -20.430 -41.905  1.00  0.00     0.224 A 
ATOM      7  N   UNL     1      -2.824 -19.152 -42.290  1.00  0.00    -0.219 NA
ATOM      8  C   UNL     1      -1.670 -18.465 -42.215  1.00  0.00     0.141 A 
ATOM      9  C   UNL     1      -0.470 -19.063 -41.777  1.00  0.00     0.044 A 
ATOM     10  C   UNL     1       0.794 -18.412 -41.710  1.00  0.00     0.026 A 
ENDROOT
BRANCH   1  11
ATOM     11  C   UNL     1       3.231 -18.387 -41.209  1.00  0.00     0.134 A 
ATOM     12  C   UNL     1       5.284 -18.138 -40.442  1.00  0.00     0.118 A 
ATOM     13  C   UNL     1       5.091 -17.128 -41.361  1.00  0.00     0.047 A 
ATOM     14  O   UNL     1       4.157 -18.903 -40.342  1.00  0.00    -0.460 OA
ATOM     15  C   UNL     1       3.773 -17.288 -41.853  1.00  0.00     0.051 A 
BRANCH  12  16
ATOM     16  C   UNL     1       6.434 -18.528 -39.584  1.00  0.00     0.157 C 
BRANCH  16  17
ATOM     17  N   UNL     1       7.115 -19.695 -40.163  1.00  0.00    -0.309 NA
ATOM     18  H   UNL     1       6.473 -20.133 -40.832  1.00  0.00     0.123 HD
BRANCH  17  19
ATOM     19  C   UNL     1       8.375 -19.322 -40.811  1.00  0.00     0.097 C 
BRANCH  19  20
ATOM     20  C   UNL     1       8.159 -19.027 -42.291  1.00  0.00     0.152 C 
BRANCH  20  21
ATOM     21  S   UNL     1       7.559 -20.438 -43.208  1.00  0.00     0.148 S 
ATOM     22  O   UNL     1       8.325 -20.562 -44.437  1.00  0.00    -0.229 OA
ATOM     23  O   UNL     1       7.463 -21.552 -42.284  1.00  0.00    -0.229 OA
ATOM     24  C   UNL     1       5.894 -19.992 -43.647  1.00  0.00     0.158 C 
ENDBRANCH  20  21
ENDBRANCH  19  20
ENDBRANCH  17  19
ENDBRANCH  16  17
ENDBRANCH  12  16
ENDBRANCH   1  11
BRANCH   8  25
ATOM     25  N   UNL     1      -1.657 -17.085 -42.559  1.00  0.00    -0.340 N 
ATOM     26  H   UNL     1      -2.615 -16.788 -42.713  1.00  0.00     0.168 HD
BRANCH  25  27
ATOM     27  C   UNL     1      -0.759 -16.399 -43.407  1.00  0.00     0.041 A 
ATOM     28  C   UNL     1       0.045 -15.343 -42.963  1.00  0.00     0.030 A 
ATOM     29  C   UNL     1      -0.772 -16.679 -44.780  1.00  0.00     0.050 A 
ATOM     30  C   UNL     1       0.861 -14.622 -43.847  1.00  0.00     0.050 A 
ATOM     31  C   UNL     1       0.039 -15.962 -45.668  1.00  0.00     0.085 A 
ATOM     32  C   UNL     1       0.866 -14.923 -45.210  1.00  0.00     0.138 A 
ATOM     33  Cl  UNL     1      -0.024 -16.392 -47.346  1.00  0.00    -0.080 Cl
BRANCH  32  34
ATOM     34  O   UNL     1       1.620 -14.276 -46.150  1.00  0.00    -0.487 OA
BRANCH  34  35
ATOM     35  C   UNL     1       2.776 -13.569 -45.707  1.00  0.00     0.265 C 
BRANCH  35  36
ATOM     36  C   UNL     1       3.888 -14.554 -45.423  1.00  0.00    -0.008 A 
ATOM     37  C   UNL     1       4.932 -14.227 -44.541  1.00  0.00     0.007 A 
ATOM     38  C   UNL     1       3.922 -15.793 -46.077  1.00  0.00     0.046 A 
ATOM     39  C   UNL     1       5.976 -15.126 -44.302  1.00  0.00     0.003 A 
ATOM     40  C   UNL     1       4.966 -16.679 -45.831  1.00  0.00     0.123 A 
ATOM     41  C   UNL     1       5.991 -16.358 -44.950  1.00  0.00     0.039 A 
ATOM     42  F   UNL     1       4.986 -17.861 -46.465  1.00  0.00    -0.207 F 
ENDBRANCH  35  36
ENDBRANCH  34  35
ENDBRANCH  32  34
ENDBRANCH  25  27
ENDBRANCH   8  25
TORSDOF 11
ENDMDL
MODEL 18
REMARK VINA RESULT:    -8.260      5.329     10.290
REMARK INTER + INTRA:         -16.261
REMARK INTER:                 -13.558
REMARK INTRA:                  -2.703
REMARK UNBOUND:                -2.689
REMARK SMILES CS(=O)(=O)CCNCc1ccc(-c2ccc3ncnc(Nc4ccc(OCc5cccc(F)c5)c(Cl)c4)c3c2)o1
REMARK SMILES IDX 13 1 14 2 15 3 16 4 17 5 18 6 19 7 20 8 38 9 39 10 12 11
REMARK SMILES IDX 9 12 10 13 40 14 11 15 8 16 7 17 6 19 5 20 2 21 3 22 4 23
REMARK SMILES IDX 1 24 21 25 22 27 23 28 37 29 24 30 35 31 25 32 36 33 26 34
REMARK SMILES IDX 27 35 28 36 29 37 34 38 30 39 32 40 31 41 33 42
REMARK H PARENT 7 18 21 26
ROOT
ATOM      1  C   UNL     1      -0.608 -10.360 -45.355  1.00  0.00     0.018 A 
ATOM      2  C   UNL     1      -1.713 -10.496 -44.512  1.00  0.00     0.014 A 
ATOM      3  C   UNL     1      -2.299  -9.372 -43.914  1.00  0.00     0.030 A 
ATOM      4  C   UNL     1      -1.811  -8.090 -44.124  1.00  0.00     0.076 A 
ATOM      5  N   UNL     1      -2.426  -7.065 -43.528  1.00  0.00    -0.236 NA
ATOM      6  C   UNL     1      -1.931  -5.848 -43.769  1.00  0.00     0.224 A 
ATOM      7  N   UNL     1      -0.876  -5.561 -44.536  1.00  0.00    -0.219 NA
ATOM      8  C   UNL     1      -0.250  -6.599 -45.117  1.00  0.00     0.141 A 
ATOM      9  C   UNL     1      -0.694  -7.928 -44.953  1.00  0.00     0.044 A 
ATOM     10  C   UNL     1      -0.109  -9.070 -45.569  1.00  0.00     0.026 A 
ENDROOT
BRANCH   1  11
ATOM     11  C   UNL     1       0.005 -11.517 -46.005  1.00  0.00     0.134 A 
ATOM     12  C   UNL     1       1.652 -12.957 -46.283  1.00  0.00     0.118 A 
ATOM     13  C   UNL     1       0.668 -13.321 -47.178  1.00  0.00     0.047 A 
ATOM     14  O   UNL     1       1.258 -11.860 -45.571  1.00  0.00    -0.460 OA
ATOM     15  C   UNL     1      -0.389 -12.397 -46.998  1.00  0.00     0.051 A 
BRANCH  12  16
ATOM     16  C   UNL     1       2.996 -13.510 -45.966  1.00  0.00     0.157 C 
BRANCH  16  17
ATOM     17  N   UNL     1       2.859 -14.855 -45.389  1.00  0.00    -0.309 NA
ATOM     18  H   UNL     1       3.699 -15.389 -45.635  1.00  0.00     0.123 HD
BRANCH  17  19
ATOM     19  C   UNL     1       2.675 -14.806 -43.936  1.00  0.00     0.097 C 
BRANCH  19  20
ATOM     20  C   UNL     1       1.707 -15.889 -43.474  1.00  0.00     0.152 C 
BRANCH  20  21
ATOM     21  S   UNL     1       0.054 -15.674 -44.117  1.00  0.00     0.148 S 
ATOM     22  O   UNL     1      -0.376 -14.309 -43.867  1.00  0.00    -0.229 OA
ATOM     23  O   UNL     1       0.033 -16.219 -45.461  1.00  0.00    -0.229 OA
ATOM     24  C   UNL     1      -0.943 -16.752 -43.113  1.00  0.00     0.158 C 
ENDBRANCH  20  21
ENDBRANCH  19  20
ENDBRANCH  17  19
ENDBRANCH  16  17
ENDBRANCH  12  16
ENDBRANCH   1  11
BRANCH   8  25
ATOM     25  N   UNL     1       0.913  -6.362 -45.901  1.00  0.00    -0.340 N 
ATOM     26  H   UNL     1       0.802  -6.843 -46.787  1.00  0.00     0.168 HD
BRANCH  25  27
ATOM     27  C   UNL     1       2.263  -6.344 -45.486  1.00  0.00     0.041 A 
ATOM     28  C   UNL     1       3.330  -6.214 -46.382  1.00  0.00     0.030 A 
ATOM     29  C   UNL     1       2.566  -6.613 -44.144  1.00  0.00     0.050 A 
ATOM     30  C   UNL     1       4.663  -6.289 -45.952  1.00  0.00     0.050 A 
ATOM     31  C   UNL     1       3.894  -6.691 -43.708  1.00  0.00     0.085 A 
ATOM     32  C   UNL     1       4.959  -6.530 -44.609  1.00  0.00     0.138 A 
ATOM     33  Cl  UNL     1       4.174  -7.004 -42.026  1.00  0.00    -0.080 Cl
BRANCH  32  34
ATOM     34  O   UNL     1       6.223  -6.626 -44.093  1.00  0.00    -0.487 OA
BRANCH  34  35
ATOM     35  C   UNL     1       7.184  -7.388 -44.820  1.00  0.00     0.265 C 
BRANCH  35  36
ATOM     36  C   UNL     1       7.286  -8.771 -44.217  1.00  0.00    -0.008 A 
ATOM     37  C   UNL     1       7.210  -8.958 -42.826  1.00  0.00     0.007 A 
ATOM     38  C   UNL     1       7.511  -9.887 -45.035  1.00  0.00     0.046 A 
ATOM     39  C   UNL     1       7.336 -10.233 -42.266  1.00  0.00     0.003 A 
ATOM     40  C   UNL     1       7.634 -11.151 -44.466  1.00  0.00     0.123 A 
ATOM     41  C   UNL     1       7.548 -11.334 -43.092  1.00  0.00     0.039 A 
ATOM     42  F   UNL     1       7.850 -12.209 -45.260  1.00  0.00    -0.207 F 
ENDBRANCH  35  36
ENDBRANCH  34  35
ENDBRANCH  32  34
ENDBRANCH  25  27
ENDBRANCH   8  25
TORSDOF 11
ENDMDL
MODEL 19
REMARK VINA RESULT:    -8.134      5.776      7.969
REMARK INTER + INTRA:         -16.054
REMARK INTER:                 -12.736
REMARK INTRA:                  -3.318
REMARK UNBOUND:                -2.689
REMARK SMILES CS(=O)(=O)CCNCc1ccc(-c2ccc3ncnc(Nc4ccc(OCc5cccc(F)c5)c(Cl)c4)c3c2)o1
REMARK SMILES IDX 13 1 14 2 15 3 16 4 17 5 18 6 19 7 20 8 38 9 39 10 12 11
REMARK SMILES IDX 9 12 10 13 40 14 11 15 8 16 7 17 6 19 5 20 2 21 3 22 4 23
REMARK SMILES IDX 1 24 21 25 22 27 23 28 37 29 24 30 35 31 25 32 36 33 26 34
REMARK SMILES IDX 27 35 28 36 29 37 34 38 30 39 32 40 31 41 33 42
REMARK H PARENT 7 18 21 26
ROOT
ATOM      1  C   UNL     1       1.427  -9.386 -44.947  1.00  0.00     0.018 A 
ATOM      2  C   UNL     1       0.048  -9.341 -45.158  1.00  0.00     0.014 A 
ATOM      3  C   UNL     1      -0.640 -10.463 -45.638  1.00  0.00     0.030 A 
ATOM      4  C   UNL     1       0.011 -11.653 -45.931  1.00  0.00     0.076 A 
ATOM      5  N   UNL     1      -0.711 -12.685 -46.376  1.00  0.00    -0.236 NA
ATOM      6  C   UNL     1      -0.046 -13.816 -46.632  1.00  0.00     0.224 A 
ATOM      7  N   UNL     1       1.269 -14.007 -46.496  1.00  0.00    -0.219 NA
ATOM      8  C   UNL     1       1.992 -12.959 -46.064  1.00  0.00     0.141 A 
ATOM      9  C   UNL     1       1.397 -11.721 -45.743  1.00  0.00     0.044 A 
ATOM     10  C   UNL     1       2.091 -10.583 -45.243  1.00  0.00     0.026 A 
ENDROOT
BRANCH   1  11
ATOM     11  C   UNL     1       2.160  -8.233 -44.428  1.00  0.00     0.134 A 
ATOM     12  C   UNL     1       3.787  -7.318 -43.253  1.00  0.00     0.118 A 
ATOM     13  C   UNL     1       3.073  -6.273 -43.800  1.00  0.00     0.047 A 
ATOM     14  O   UNL     1       3.235  -8.510 -43.627  1.00  0.00    -0.460 OA
ATOM     15  C   UNL     1       2.029  -6.861 -44.555  1.00  0.00     0.051 A 
BRANCH  12  16
ATOM     16  C   UNL     1       4.986  -7.383 -42.376  1.00  0.00     0.157 C 
BRANCH  16  17
ATOM     17  N   UNL     1       5.876  -8.462 -42.826  1.00  0.00    -0.309 NA
ATOM     18  H   UNL     1       5.300  -9.295 -42.993  1.00  0.00     0.123 HD
BRANCH  17  19
ATOM     19  C   UNL     1       6.617  -8.087 -44.033  1.00  0.00     0.097 C 
BRANCH  19  20
ATOM     20  C   UNL     1       7.492  -9.238 -44.515  1.00  0.00     0.152 C 
BRANCH  20  21
ATOM     21  S   UNL     1       6.893 -10.840 -43.998  1.00  0.00     0.148 S 
ATOM     22  O   UNL     1       7.162 -11.009 -42.580  1.00  0.00    -0.229 OA
ATOM     23  O   UNL     1       5.546 -10.992 -44.516  1.00  0.00    -0.229 OA
ATOM     24  C   UNL     1       7.916 -11.991 -44.888  1.00  0.00     0.158 C 
ENDBRANCH  20  21
ENDBRANCH  19  20
ENDBRANCH  17  19
ENDBRANCH  16  17
ENDBRANCH  12  16
ENDBRANCH   1  11
BRANCH   8  25
ATOM     25  N   UNL     1       3.405 -13.085 -45.953  1.00  0.00    -0.340 N 
ATOM     26  H   UNL     1       3.818 -12.816 -46.840  1.00  0.00     0.168 HD
BRANCH  25  27
ATOM     27  C   UNL     1       4.149 -14.106 -45.323  1.00  0.00     0.041 A 
ATOM     28  C   UNL     1       3.820 -14.616 -44.062  1.00  0.00     0.030 A 
ATOM     29  C   UNL     1       5.350 -14.531 -45.907  1.00  0.00     0.050 A 
ATOM     30  C   UNL     1       4.628 -15.567 -43.422  1.00  0.00     0.050 A 
ATOM     31  C   UNL     1       6.163 -15.479 -45.272  1.00  0.00     0.085 A 
ATOM     32  C   UNL     1       5.810 -16.007 -44.021  1.00  0.00     0.138 A 
ATOM     33  Cl  UNL     1       7.619 -15.962 -46.080  1.00  0.00    -0.080 Cl
BRANCH  32  34
ATOM     34  O   UNL     1       6.667 -16.925 -43.476  1.00  0.00    -0.487 OA
BRANCH  34  35
ATOM     35  C   UNL     1       6.984 -16.801 -42.092  1.00  0.00     0.265 C 
BRANCH  35  36
ATOM     36  C   UNL     1       7.873 -15.595 -41.887  1.00  0.00    -0.008 A 
ATOM     37  C   UNL     1       9.089 -15.471 -42.580  1.00  0.00     0.007 A 
ATOM     38  C   UNL     1       7.520 -14.602 -40.963  1.00  0.00     0.046 A 
ATOM     39  C   UNL     1       9.926 -14.371 -42.368  1.00  0.00     0.003 A 
ATOM     40  C   UNL     1       8.361 -13.511 -40.761  1.00  0.00     0.123 A 
ATOM     41  C   UNL     1       9.558 -13.387 -41.455  1.00  0.00     0.039 A 
ATOM     42  F   UNL     1       8.012 -12.570 -39.873  1.00  0.00    -0.207 F 
ENDBRANCH  35  36
ENDBRANCH  34  35
ENDBRANCH  32  34
ENDBRANCH  25  27
ENDBRANCH   8  25
TORSDOF 11
ENDMDL
MODEL 20
REMARK VINA RESULT:    -8.120      4.023      9.157
REMARK INTER + INTRA:         -16.030
REMARK INTER:                 -13.830
REMARK INTRA:                  -2.199
REMARK UNBOUND:                -2.689
REMARK SMILES CS(=O)(=O)CCNCc1ccc(-c2ccc3ncnc(Nc4ccc(OCc5cccc(F)c5)c(Cl)c4)c3c2)o1
REMARK SMILES IDX 13 1 14 2 15 3 16 4 17 5 18 6 19 7 20 8 38 9 39 10 12 11
REMARK SMILES IDX 9 12 10 13 40 14 11 15 8 16 7 17 6 19 5 20 2 21 3 22 4 23
REMARK SMILES IDX 1 24 21 25 22 27 23 28 37 29 24 30 35 31 25 32 36 33 26 34
REMARK SMILES IDX 27 35 28 36 29 37 34 38 30 39 32 40 31 41 33 42
REMARK H PARENT 7 18 21 26
ROOT
ATOM      1  C   UNL     1       3.072 -19.025 -40.933  1.00  0.00     0.018 A 
ATOM      2  C   UNL     1       2.319 -20.165 -40.645  1.00  0.00     0.014 A 
ATOM      3  C   UNL     1       0.948 -20.208 -40.931  1.00  0.00     0.030 A 
ATOM      4  C   UNL     1       0.282 -19.131 -41.499  1.00  0.00     0.076 A 
ATOM      5  N   UNL     1      -1.024 -19.247 -41.752  1.00  0.00    -0.236 NA
ATOM      6  C   UNL     1      -1.622 -18.191 -42.312  1.00  0.00     0.224 A 
ATOM      7  N   UNL     1      -1.042 -17.031 -42.630  1.00  0.00    -0.219 NA
ATOM      8  C   UNL     1       0.270 -16.915 -42.356  1.00  0.00     0.141 A 
ATOM      9  C   UNL     1       1.012 -17.970 -41.784  1.00  0.00     0.044 A 
ATOM     10  C   UNL     1       2.406 -17.934 -41.504  1.00  0.00     0.026 A 
ENDROOT
BRANCH   1  11
ATOM     11  C   UNL     1       4.507 -18.967 -40.661  1.00  0.00     0.134 A 
ATOM     12  C   UNL     1       6.614 -19.354 -41.187  1.00  0.00     0.118 A 
ATOM     13  C   UNL     1       6.633 -18.719 -39.963  1.00  0.00     0.047 A 
ATOM     14  O   UNL     1       5.326 -19.512 -41.614  1.00  0.00    -0.460 OA
ATOM     15  C   UNL     1       5.281 -18.471 -39.626  1.00  0.00     0.051 A 
BRANCH  12  16
ATOM     16  C   UNL     1       7.681 -19.873 -42.082  1.00  0.00     0.157 C 
BRANCH  16  17
ATOM     17  N   UNL     1       7.093 -20.324 -43.351  1.00  0.00    -0.309 NA
ATOM     18  H   UNL     1       6.209 -19.822 -43.484  1.00  0.00     0.123 HD
BRANCH  17  19
ATOM     19  C   UNL     1       7.999 -20.099 -44.481  1.00  0.00     0.097 C 
BRANCH  19  20
ATOM     20  C   UNL     1       8.291 -18.614 -44.656  1.00  0.00     0.152 C 
BRANCH  20  21
ATOM     21  S   UNL     1       6.875 -17.680 -45.219  1.00  0.00     0.148 S 
ATOM     22  O   UNL     1       7.270 -16.863 -46.353  1.00  0.00    -0.229 OA
ATOM     23  O   UNL     1       5.759 -18.601 -45.327  1.00  0.00    -0.229 OA
ATOM     24  C   UNL     1       6.509 -16.590 -43.862  1.00  0.00     0.158 C 
ENDBRANCH  20  21
ENDBRANCH  19  20
ENDBRANCH  17  19
ENDBRANCH  16  17
ENDBRANCH  12  16
ENDBRANCH   1  11
BRANCH   8  25
ATOM     25  N   UNL     1       0.931 -15.683 -42.620  1.00  0.00    -0.340 N 
ATOM     26  H   UNL     1       1.228 -15.286 -41.735  1.00  0.00     0.168 HD
BRANCH  25  27
ATOM     27  C   UNL     1       0.577 -14.677 -43.547  1.00  0.00     0.041 A 
ATOM     28  C   UNL     1       0.298 -14.948 -44.891  1.00  0.00     0.030 A 
ATOM     29  C   UNL     1       0.648 -13.334 -43.152  1.00  0.00     0.050 A 
ATOM     30  C   UNL     1       0.037 -13.919 -45.808  1.00  0.00     0.050 A 
ATOM     31  C   UNL     1       0.391 -12.302 -44.062  1.00  0.00     0.085 A 
ATOM     32  C   UNL     1       0.083 -12.584 -45.402  1.00  0.00     0.138 A 
ATOM     33  Cl  UNL     1       0.480 -10.672 -43.480  1.00  0.00    -0.080 Cl
BRANCH  32  34
ATOM     34  O   UNL     1      -0.150 -11.512 -46.221  1.00  0.00    -0.487 OA
BRANCH  34  35
ATOM     35  C   UNL     1      -1.495 -11.255 -46.618  1.00  0.00     0.265 C 
BRANCH  35  36
ATOM     36  C   UNL     1      -2.053 -10.118 -45.792  1.00  0.00    -0.008 A 
ATOM     37  C   UNL     1      -1.531  -8.819 -45.910  1.00  0.00     0.007 A 
ATOM     38  C   UNL     1      -3.068 -10.353 -44.855  1.00  0.00     0.046 A 
ATOM     39  C   UNL     1      -2.026  -7.773 -45.124  1.00  0.00     0.003 A 
ATOM     40  C   UNL     1      -3.553  -9.305 -44.078  1.00  0.00     0.123 A 
ATOM     41  C   UNL     1      -3.042  -8.019 -44.205  1.00  0.00     0.039 A 
ATOM     42  F   UNL     1      -4.523  -9.545 -43.185  1.00  0.00    -0.207 F 
ENDBRANCH  35  36
ENDBRANCH  34  35
ENDBRANCH  32  34
ENDBRANCH  25  27
ENDBRANCH   8  25
TORSDOF 11
ENDMDL
