MODEL 1
REMARK VINA RESULT:    -9.083      0.000      0.000
REMARK INTER + INTRA:         -11.679
REMARK INTER:                 -11.738
REMARK INTRA:                   0.059
REMARK UNBOUND:                 0.059
REMARK SMILES CC1(C)CNc2cc(NC(=O)c3cccnc3NCc3ccncc3)ccc21
REMARK SMILES IDX 12 1 13 2 14 3 15 4 16 5 17 6 10 7 9 8 11 9 8 11 2 12 4 13
REMARK SMILES IDX 28 14 5 15 27 16 6 17 26 18 7 19 1 20 3 21 18 23 19 25 20 26
REMARK SMILES IDX 21 27 25 28 22 29 24 30 23 31
REMARK H PARENT 9 10 5 22 18 24
ROOT
ATOM      1  C   UNL     1      -2.348 -19.499 -42.102  1.00  0.00     0.082 A 
ATOM      2  C   UNL     1      -3.610 -20.105 -42.028  1.00  0.00     0.019 A 
ATOM      3  C   UNL     1      -3.706 -21.408 -41.561  1.00  0.00     0.021 A 
ATOM      4  C   UNL     1      -2.539 -22.051 -41.196  1.00  0.00     0.113 A 
ATOM      5  N   UNL     1      -1.311 -21.490 -41.271  1.00  0.00    -0.239 NA
ATOM      6  C   UNL     1      -1.204 -20.220 -41.729  1.00  0.00     0.139 A 
ENDROOT
BRANCH   1   7
ATOM      7  C   UNL     1      -2.226 -18.122 -42.638  1.00  0.00     0.259 C 
ATOM      8  N   UNL     1      -0.960 -17.794 -43.086  1.00  0.00    -0.322 N 
ATOM      9  O   UNL     1      -3.227 -17.414 -42.633  1.00  0.00    -0.269 OA
ATOM     10  H   UNL     1      -0.270 -18.534 -43.088  1.00  0.00     0.170 HD
BRANCH   8  11
ATOM     11  C   UNL     1      -0.532 -16.557 -43.617  1.00  0.00     0.043 A 
ATOM     12  C   UNL     1       0.726 -12.812 -45.239  1.00  0.00     0.009 C 
ATOM     13  C   UNL     1       1.412 -12.384 -43.908  1.00  0.00     0.124 C 
ATOM     14  C   UNL     1       0.268 -14.192 -44.853  1.00  0.00    -0.017 A 
ATOM     15  N   UNL     1       0.798 -13.158 -42.816  1.00  0.00    -0.384 N 
ATOM     16  C   UNL     1      -0.210 -15.222 -45.645  1.00  0.00     0.008 A 
ATOM     17  C   UNL     1       0.363 -14.338 -43.469  1.00  0.00     0.040 A 
ATOM     18  C   UNL     1      -0.603 -16.409 -45.019  1.00  0.00     0.026 A 
ATOM     19  C   UNL     1      -0.055 -15.499 -42.837  1.00  0.00     0.052 A 
ATOM     20  C   UNL     1      -0.475 -11.914 -45.559  1.00  0.00     0.018 C 
ATOM     21  C   UNL     1       1.722 -12.811 -46.399  1.00  0.00     0.018 C 
ATOM     22  H   UNL     1       1.413 -13.374 -42.035  1.00  0.00     0.160 HD
ENDBRANCH   8  11
ENDBRANCH   1   7
BRANCH   6  23
ATOM     23  N   UNL     1       0.054 -19.593 -41.740  1.00  0.00    -0.365 N 
ATOM     24  H   UNL     1       0.590 -19.960 -42.531  1.00  0.00     0.162 HD
BRANCH  23  25
ATOM     25  C   UNL     1       0.814 -19.607 -40.501  1.00  0.00     0.150 C 
BRANCH  25  26
ATOM     26  C   UNL     1       2.289 -19.764 -40.777  1.00  0.00    -0.026 A 
ATOM     27  C   UNL     1       3.227 -18.935 -40.158  1.00  0.00     0.025 A 
ATOM     28  C   UNL     1       2.752 -20.737 -41.668  1.00  0.00     0.025 A 
ATOM     29  C   UNL     1       4.571 -19.118 -40.445  1.00  0.00     0.111 A 
ATOM     30  C   UNL     1       4.116 -20.843 -41.889  1.00  0.00     0.111 A 
ATOM     31  N   UNL     1       5.040 -20.060 -41.291  1.00  0.00    -0.265 NA
ENDBRANCH  25  26
ENDBRANCH  23  25
ENDBRANCH   6  23
TORSDOF 5
ENDMDL
MODEL 2
REMARK VINA RESULT:    -8.945      0.985      1.595
REMARK INTER + INTRA:         -11.501
REMARK INTER:                 -11.502
REMARK INTRA:                   0.001
REMARK UNBOUND:                 0.059
REMARK SMILES CC1(C)CNc2cc(NC(=O)c3cccnc3NCc3ccncc3)ccc21
REMARK SMILES IDX 12 1 13 2 14 3 15 4 16 5 17 6 10 7 9 8 11 9 8 11 2 12 4 13
REMARK SMILES IDX 28 14 5 15 27 16 6 17 26 18 7 19 1 20 3 21 18 23 19 25 20 26
REMARK SMILES IDX 21 27 25 28 22 29 24 30 23 31
REMARK H PARENT 9 10 5 22 18 24
ROOT
ATOM      1  C   UNL     1      -2.521 -19.396 -42.158  1.00  0.00     0.082 A 
ATOM      2  C   UNL     1      -3.813 -19.932 -42.076  1.00  0.00     0.019 A 
ATOM      3  C   UNL     1      -3.980 -21.222 -41.594  1.00  0.00     0.021 A 
ATOM      4  C   UNL     1      -2.850 -21.924 -41.223  1.00  0.00     0.113 A 
ATOM      5  N   UNL     1      -1.593 -21.432 -41.305  1.00  0.00    -0.239 NA
ATOM      6  C   UNL     1      -1.417 -20.175 -41.778  1.00  0.00     0.139 A 
ENDROOT
BRANCH   1   7
ATOM      7  C   UNL     1      -2.323 -18.035 -42.710  1.00  0.00     0.259 C 
ATOM      8  N   UNL     1      -1.072 -17.815 -43.254  1.00  0.00    -0.322 N 
ATOM      9  O   UNL     1      -3.258 -17.245 -42.633  1.00  0.00    -0.269 OA
ATOM     10  H   UNL     1      -0.449 -18.611 -43.305  1.00  0.00     0.170 HD
BRANCH   8  11
ATOM     11  C   UNL     1      -0.583 -16.618 -43.823  1.00  0.00     0.043 A 
ATOM     12  C   UNL     1       0.931 -13.007 -45.528  1.00  0.00     0.009 C 
ATOM     13  C   UNL     1       0.213 -13.262 -46.887  1.00  0.00     0.124 C 
ATOM     14  C   UNL     1       0.434 -14.197 -44.754  1.00  0.00    -0.017 A 
ATOM     15  N   UNL     1      -0.053 -14.707 -46.991  1.00  0.00    -0.384 N 
ATOM     16  C   UNL     1       0.501 -14.464 -43.397  1.00  0.00     0.008 A 
ATOM     17  C   UNL     1      -0.143 -15.111 -45.635  1.00  0.00     0.040 A 
ATOM     18  C   UNL     1      -0.018 -15.677 -42.936  1.00  0.00     0.026 A 
ATOM     19  C   UNL     1      -0.630 -16.331 -45.191  1.00  0.00     0.052 A 
ATOM     20  C   UNL     1       2.455 -13.064 -45.687  1.00  0.00     0.018 C 
ATOM     21  C   UNL     1       0.504 -11.671 -44.920  1.00  0.00     0.018 C 
ATOM     22  H   UNL     1      -0.892 -14.960 -47.507  1.00  0.00     0.160 HD
ENDBRANCH   8  11
ENDBRANCH   1   7
BRANCH   6  23
ATOM     23  N   UNL     1      -0.127 -19.619 -41.796  1.00  0.00    -0.365 N 
ATOM     24  H   UNL     1       0.411 -20.077 -42.536  1.00  0.00     0.162 HD
BRANCH  23  25
ATOM     25  C   UNL     1       0.595 -19.569 -40.535  1.00  0.00     0.150 C 
BRANCH  25  26
ATOM     26  C   UNL     1       2.081 -19.695 -40.760  1.00  0.00    -0.026 A 
ATOM     27  C   UNL     1       2.978 -18.824 -40.138  1.00  0.00     0.025 A 
ATOM     28  C   UNL     1       2.596 -20.682 -41.607  1.00  0.00     0.025 A 
ATOM     29  C   UNL     1       4.334 -18.981 -40.378  1.00  0.00     0.111 A 
ATOM     30  C   UNL     1       3.969 -20.758 -41.783  1.00  0.00     0.111 A 
ATOM     31  N   UNL     1       4.854 -19.934 -41.181  1.00  0.00    -0.265 NA
ENDBRANCH  25  26
ENDBRANCH  23  25
ENDBRANCH   6  23
TORSDOF 5
ENDMDL
MODEL 3
REMARK VINA RESULT:    -8.939      3.620      7.193
REMARK INTER + INTRA:         -11.492
REMARK INTER:                 -10.488
REMARK INTRA:                  -1.004
REMARK UNBOUND:                 0.059
REMARK SMILES CC1(C)CNc2cc(NC(=O)c3cccnc3NCc3ccncc3)ccc21
REMARK SMILES IDX 12 1 13 2 14 3 15 4 16 5 17 6 10 7 9 8 11 9 8 11 2 12 4 13
REMARK SMILES IDX 28 14 5 15 27 16 6 17 26 18 7 19 1 20 3 21 18 23 19 25 20 26
REMARK SMILES IDX 21 27 25 28 22 29 24 30 23 31
REMARK H PARENT 9 10 5 22 18 24
ROOT
ATOM      1  C   UNL     1       1.207 -13.384 -44.608  1.00  0.00     0.082 A 
ATOM      2  C   UNL     1       2.529 -12.978 -44.837  1.00  0.00     0.019 A 
ATOM      3  C   UNL     1       3.568 -13.809 -44.441  1.00  0.00     0.021 A 
ATOM      4  C   UNL     1       3.242 -15.002 -43.827  1.00  0.00     0.113 A 
ATOM      5  N   UNL     1       1.975 -15.408 -43.585  1.00  0.00    -0.239 NA
ATOM      6  C   UNL     1       0.953 -14.604 -43.964  1.00  0.00     0.139 A 
ENDROOT
BRANCH   1   7
ATOM      7  C   UNL     1       0.089 -12.489 -44.988  1.00  0.00     0.259 C 
ATOM      8  N   UNL     1       0.072 -11.279 -44.320  1.00  0.00    -0.322 N 
ATOM      9  O   UNL     1      -0.704 -12.890 -45.834  1.00  0.00    -0.269 OA
ATOM     10  H   UNL     1       0.856 -11.083 -43.710  1.00  0.00     0.170 HD
BRANCH   8  11
ATOM     11  C   UNL     1      -0.879 -10.242 -44.446  1.00  0.00     0.043 A 
ATOM     12  C   UNL     1      -3.769  -7.126 -44.860  1.00  0.00     0.009 C 
ATOM     13  C   UNL     1      -4.080  -7.113 -43.335  1.00  0.00     0.124 C 
ATOM     14  C   UNL     1      -2.679  -8.162 -44.886  1.00  0.00    -0.017 A 
ATOM     15  N   UNL     1      -3.687  -8.421 -42.783  1.00  0.00    -0.384 N 
ATOM     16  C   UNL     1      -1.794  -8.495 -45.897  1.00  0.00     0.008 A 
ATOM     17  C   UNL     1      -2.662  -8.841 -43.668  1.00  0.00     0.040 A 
ATOM     18  C   UNL     1      -0.889  -9.535 -45.667  1.00  0.00     0.026 A 
ATOM     19  C   UNL     1      -1.789  -9.895 -43.443  1.00  0.00     0.052 A 
ATOM     20  C   UNL     1      -4.983  -7.598 -45.670  1.00  0.00     0.018 C 
ATOM     21  C   UNL     1      -3.304  -5.751 -45.342  1.00  0.00     0.018 C 
ATOM     22  H   UNL     1      -3.360  -8.408 -41.820  1.00  0.00     0.160 HD
ENDBRANCH   8  11
ENDBRANCH   1   7
BRANCH   6  23
ATOM     23  N   UNL     1      -0.371 -15.044 -43.793  1.00  0.00    -0.365 N 
ATOM     24  H   UNL     1      -0.576 -15.065 -42.790  1.00  0.00     0.162 HD
BRANCH  23  25
ATOM     25  C   UNL     1      -0.755 -16.274 -44.464  1.00  0.00     0.150 C 
BRANCH  25  26
ATOM     26  C   UNL     1      -1.593 -17.142 -43.558  1.00  0.00    -0.026 A 
ATOM     27  C   UNL     1      -2.987 -17.049 -43.561  1.00  0.00     0.025 A 
ATOM     28  C   UNL     1      -0.993 -18.055 -42.684  1.00  0.00     0.025 A 
ATOM     29  C   UNL     1      -3.712 -17.868 -42.710  1.00  0.00     0.111 A 
ATOM     30  C   UNL     1      -1.804 -18.830 -41.872  1.00  0.00     0.111 A 
ATOM     31  N   UNL     1      -3.153 -18.765 -41.869  1.00  0.00    -0.265 NA
ENDBRANCH  25  26
ENDBRANCH  23  25
ENDBRANCH   6  23
TORSDOF 5
ENDMDL
MODEL 4
REMARK VINA RESULT:    -8.874      1.973      6.385
REMARK INTER + INTRA:         -11.409
REMARK INTER:                 -10.462
REMARK INTRA:                  -0.947
REMARK UNBOUND:                 0.059
REMARK SMILES CC1(C)CNc2cc(NC(=O)c3cccnc3NCc3ccncc3)ccc21
REMARK SMILES IDX 12 1 13 2 14 3 15 4 16 5 17 6 10 7 9 8 11 9 8 11 2 12 4 13
REMARK SMILES IDX 28 14 5 15 27 16 6 17 26 18 7 19 1 20 3 21 18 23 19 25 20 26
REMARK SMILES IDX 21 27 25 28 22 29 24 30 23 31
REMARK H PARENT 9 10 5 22 18 24
ROOT
ATOM      1  C   UNL     1      -0.695 -20.433 -41.364  1.00  0.00     0.082 A 
ATOM      2  C   UNL     1      -0.894 -21.806 -41.170  1.00  0.00     0.019 A 
ATOM      3  C   UNL     1      -2.173 -22.328 -41.304  1.00  0.00     0.021 A 
ATOM      4  C   UNL     1      -3.197 -21.456 -41.617  1.00  0.00     0.113 A 
ATOM      5  N   UNL     1      -3.030 -20.126 -41.797  1.00  0.00    -0.239 NA
ATOM      6  C   UNL     1      -1.787 -19.604 -41.665  1.00  0.00     0.139 A 
ENDROOT
BRANCH   1   7
ATOM      7  C   UNL     1       0.658 -19.854 -41.183  1.00  0.00     0.259 C 
ATOM      8  N   UNL     1       1.674 -20.582 -41.776  1.00  0.00    -0.322 N 
ATOM      9  O   UNL     1       0.755 -18.815 -40.540  1.00  0.00    -0.269 OA
ATOM     10  H   UNL     1       1.399 -21.376 -42.338  1.00  0.00     0.170 HD
BRANCH   8  11
ATOM     11  C   UNL     1       3.057 -20.300 -41.750  1.00  0.00     0.043 A 
ATOM     12  C   UNL     1       7.238 -19.432 -41.707  1.00  0.00     0.009 C 
ATOM     13  C   UNL     1       7.194 -18.934 -40.232  1.00  0.00     0.124 C 
ATOM     14  C   UNL     1       5.805 -19.856 -41.873  1.00  0.00    -0.017 A 
ATOM     15  N   UNL     1       5.807 -18.539 -39.931  1.00  0.00    -0.384 N 
ATOM     16  C   UNL     1       5.212 -20.606 -42.874  1.00  0.00     0.008 A 
ATOM     17  C   UNL     1       5.049 -19.346 -40.817  1.00  0.00     0.040 A 
ATOM     18  C   UNL     1       3.834 -20.831 -42.802  1.00  0.00     0.026 A 
ATOM     19  C   UNL     1       3.677 -19.537 -40.755  1.00  0.00     0.052 A 
ATOM     20  C   UNL     1       7.578 -18.286 -42.668  1.00  0.00     0.018 C 
ATOM     21  C   UNL     1       8.231 -20.583 -41.872  1.00  0.00     0.018 C 
ATOM     22  H   UNL     1       5.514 -18.675 -38.967  1.00  0.00     0.160 HD
ENDBRANCH   8  11
ENDBRANCH   1   7
BRANCH   6  23
ATOM     23  N   UNL     1      -1.580 -18.239 -41.925  1.00  0.00    -0.365 N 
ATOM     24  H   UNL     1      -2.046 -17.697 -41.192  1.00  0.00     0.162 HD
BRANCH  23  25
ATOM     25  C   UNL     1      -1.903 -17.760 -43.259  1.00  0.00     0.150 C 
BRANCH  25  26
ATOM     26  C   UNL     1      -0.840 -16.816 -43.763  1.00  0.00    -0.026 A 
ATOM     27  C   UNL     1      -0.762 -16.479 -45.117  1.00  0.00     0.025 A 
ATOM     28  C   UNL     1       0.101 -16.262 -42.889  1.00  0.00     0.025 A 
ATOM     29  C   UNL     1       0.233 -15.608 -45.531  1.00  0.00     0.111 A 
ATOM     30  C   UNL     1       1.058 -15.400 -43.399  1.00  0.00     0.111 A 
ATOM     31  N   UNL     1       1.143 -15.052 -44.702  1.00  0.00    -0.265 NA
ENDBRANCH  25  26
ENDBRANCH  23  25
ENDBRANCH   6  23
TORSDOF 5
ENDMDL
MODEL 5
REMARK VINA RESULT:    -8.859      6.342      9.521
REMARK INTER + INTRA:         -11.389
REMARK INTER:                 -10.207
REMARK INTRA:                  -1.182
REMARK UNBOUND:                 0.059
REMARK SMILES CC1(C)CNc2cc(NC(=O)c3cccnc3NCc3ccncc3)ccc21
REMARK SMILES IDX 12 1 13 2 14 3 15 4 16 5 17 6 10 7 9 8 11 9 8 11 2 12 4 13
REMARK SMILES IDX 28 14 5 15 27 16 6 17 26 18 7 19 1 20 3 21 18 23 19 25 20 26
REMARK SMILES IDX 21 27 25 28 22 29 24 30 23 31
REMARK H PARENT 9 10 5 22 18 24
ROOT
ATOM      1  C   UNL     1       1.528 -12.029 -44.448  1.00  0.00     0.082 A 
ATOM      2  C   UNL     1       1.235 -13.354 -44.097  1.00  0.00     0.019 A 
ATOM      3  C   UNL     1       2.068 -14.370 -44.544  1.00  0.00     0.021 A 
ATOM      4  C   UNL     1       3.150 -14.021 -45.328  1.00  0.00     0.113 A 
ATOM      5  N   UNL     1       3.444 -12.751 -45.689  1.00  0.00    -0.239 NA
ATOM      6  C   UNL     1       2.636 -11.751 -45.262  1.00  0.00     0.139 A 
ENDROOT
BRANCH   1   7
ATOM      7  C   UNL     1       0.624 -10.938 -44.013  1.00  0.00     0.259 C 
ATOM      8  N   UNL     1      -0.555 -10.852 -44.729  1.00  0.00    -0.322 N 
ATOM      9  O   UNL     1       0.993 -10.225 -43.086  1.00  0.00    -0.269 OA
ATOM     10  H   UNL     1      -0.729 -11.579 -45.411  1.00  0.00     0.170 HD
BRANCH   8  11
ATOM     11  C   UNL     1      -1.590  -9.905 -44.566  1.00  0.00     0.043 A 
ATOM     12  C   UNL     1      -4.732  -7.050 -44.110  1.00  0.00     0.009 C 
ATOM     13  C   UNL     1      -5.011  -7.482 -42.641  1.00  0.00     0.124 C 
ATOM     14  C   UNL     1      -3.563  -7.943 -44.419  1.00  0.00    -0.017 A 
ATOM     15  N   UNL     1      -4.500  -8.853 -42.471  1.00  0.00    -0.384 N 
ATOM     16  C   UNL     1      -2.676  -7.910 -45.481  1.00  0.00     0.008 A 
ATOM     17  C   UNL     1      -3.464  -8.927 -43.435  1.00  0.00     0.040 A 
ATOM     18  C   UNL     1      -1.684  -8.893 -45.545  1.00  0.00     0.026 A 
ATOM     19  C   UNL     1      -2.503  -9.924 -43.508  1.00  0.00     0.052 A 
ATOM     20  C   UNL     1      -5.921  -7.381 -45.021  1.00  0.00     0.018 C 
ATOM     21  C   UNL     1      -4.391  -5.561 -44.193  1.00  0.00     0.018 C 
ATOM     22  H   UNL     1      -4.155  -9.078 -41.541  1.00  0.00     0.160 HD
ENDBRANCH   8  11
ENDBRANCH   1   7
BRANCH   6  23
ATOM     23  N   UNL     1       2.970 -10.419 -45.561  1.00  0.00    -0.365 N 
ATOM     24  H   UNL     1       2.463 -10.142 -46.407  1.00  0.00     0.162 HD
BRANCH  23  25
ATOM     25  C   UNL     1       4.383 -10.086 -45.627  1.00  0.00     0.150 C 
BRANCH  25  26
ATOM     26  C   UNL     1       4.731  -9.019 -44.620  1.00  0.00    -0.026 A 
ATOM     27  C   UNL     1       3.747  -8.181 -44.091  1.00  0.00     0.025 A 
ATOM     28  C   UNL     1       6.053  -8.835 -44.199  1.00  0.00     0.025 A 
ATOM     29  C   UNL     1       4.119  -7.214 -43.168  1.00  0.00     0.111 A 
ATOM     30  C   UNL     1       6.324  -7.841 -43.271  1.00  0.00     0.111 A 
ATOM     31  N   UNL     1       5.385  -7.030 -42.738  1.00  0.00    -0.265 NA
ENDBRANCH  25  26
ENDBRANCH  23  25
ENDBRANCH   6  23
TORSDOF 5
ENDMDL
MODEL 6
REMARK VINA RESULT:    -8.818      6.455      9.623
REMARK INTER + INTRA:         -11.337
REMARK INTER:                 -10.370
REMARK INTRA:                  -0.967
REMARK UNBOUND:                 0.059
REMARK SMILES CC1(C)CNc2cc(NC(=O)c3cccnc3NCc3ccncc3)ccc21
REMARK SMILES IDX 12 1 13 2 14 3 15 4 16 5 17 6 10 7 9 8 11 9 8 11 2 12 4 13
REMARK SMILES IDX 28 14 5 15 27 16 6 17 26 18 7 19 1 20 3 21 18 23 19 25 20 26
REMARK SMILES IDX 21 27 25 28 22 29 24 30 23 31
REMARK H PARENT 9 10 5 22 18 24
ROOT
ATOM      1  C   UNL     1       1.501 -11.925 -44.427  1.00  0.00     0.082 A 
ATOM      2  C   UNL     1       1.270 -13.270 -44.108  1.00  0.00     0.019 A 
ATOM      3  C   UNL     1       2.127 -14.239 -44.609  1.00  0.00     0.021 A 
ATOM      4  C   UNL     1       3.173 -13.825 -45.411  1.00  0.00     0.113 A 
ATOM      5  N   UNL     1       3.407 -12.534 -45.741  1.00  0.00    -0.239 NA
ATOM      6  C   UNL     1       2.574 -11.580 -45.262  1.00  0.00     0.139 A 
ENDROOT
BRANCH   1   7
ATOM      7  C   UNL     1       0.569 -10.883 -43.934  1.00  0.00     0.259 C 
ATOM      8  N   UNL     1      -0.602 -10.773 -44.660  1.00  0.00    -0.322 N 
ATOM      9  O   UNL     1       0.911 -10.226 -42.956  1.00  0.00    -0.269 OA
ATOM     10  H   UNL     1      -0.752 -11.456 -45.392  1.00  0.00     0.170 HD
BRANCH   8  11
ATOM     11  C   UNL     1      -1.658  -9.860 -44.451  1.00  0.00     0.043 A 
ATOM     12  C   UNL     1      -4.867  -7.121 -43.792  1.00  0.00     0.009 C 
ATOM     13  C   UNL     1      -3.910  -5.893 -43.761  1.00  0.00     0.124 C 
ATOM     14  C   UNL     1      -3.873  -8.208 -44.093  1.00  0.00    -0.017 A 
ATOM     15  N   UNL     1      -2.562  -6.382 -43.424  1.00  0.00    -0.384 N 
ATOM     16  C   UNL     1      -4.083  -9.520 -44.484  1.00  0.00     0.008 A 
ATOM     17  C   UNL     1      -2.582  -7.718 -43.897  1.00  0.00     0.040 A 
ATOM     18  C   UNL     1      -2.967 -10.341 -44.668  1.00  0.00     0.026 A 
ATOM     19  C   UNL     1      -1.471  -8.534 -44.047  1.00  0.00     0.052 A 
ATOM     20  C   UNL     1      -5.521  -7.349 -42.423  1.00  0.00     0.018 C 
ATOM     21  C   UNL     1      -5.934  -6.963 -44.876  1.00  0.00     0.018 C 
ATOM     22  H   UNL     1      -1.793  -5.857 -43.833  1.00  0.00     0.160 HD
ENDBRANCH   8  11
ENDBRANCH   1   7
BRANCH   6  23
ATOM     23  N   UNL     1       2.848 -10.228 -45.529  1.00  0.00    -0.365 N 
ATOM     24  H   UNL     1       2.301  -9.943 -46.346  1.00  0.00     0.162 HD
BRANCH  23  25
ATOM     25  C   UNL     1       4.244  -9.840 -45.635  1.00  0.00     0.150 C 
BRANCH  25  26
ATOM     26  C   UNL     1       4.607  -8.835 -44.570  1.00  0.00    -0.026 A 
ATOM     27  C   UNL     1       3.636  -8.004 -44.006  1.00  0.00     0.025 A 
ATOM     28  C   UNL     1       5.927  -8.704 -44.127  1.00  0.00     0.025 A 
ATOM     29  C   UNL     1       4.020  -7.096 -43.031  1.00  0.00     0.111 A 
ATOM     30  C   UNL     1       6.211  -7.768 -43.147  1.00  0.00     0.111 A 
ATOM     31  N   UNL     1       5.285  -6.964 -42.580  1.00  0.00    -0.265 NA
ENDBRANCH  25  26
ENDBRANCH  23  25
ENDBRANCH   6  23
TORSDOF 5
ENDMDL
MODEL 7
REMARK VINA RESULT:    -8.596      4.614      9.036
REMARK INTER + INTRA:         -11.050
REMARK INTER:                 -10.021
REMARK INTRA:                  -1.029
REMARK UNBOUND:                 0.059
REMARK SMILES CC1(C)CNc2cc(NC(=O)c3cccnc3NCc3ccncc3)ccc21
REMARK SMILES IDX 12 1 13 2 14 3 15 4 16 5 17 6 10 7 9 8 11 9 8 11 2 12 4 13
REMARK SMILES IDX 28 14 5 15 27 16 6 17 26 18 7 19 1 20 3 21 18 23 19 25 20 26
REMARK SMILES IDX 21 27 25 28 22 29 24 30 23 31
REMARK H PARENT 9 10 5 22 18 24
ROOT
ATOM      1  C   UNL     1       2.332 -10.151 -45.261  1.00  0.00     0.082 A 
ATOM      2  C   UNL     1       3.078  -8.965 -45.234  1.00  0.00     0.019 A 
ATOM      3  C   UNL     1       4.464  -9.040 -45.227  1.00  0.00     0.021 A 
ATOM      4  C   UNL     1       5.043 -10.294 -45.240  1.00  0.00     0.113 A 
ATOM      5  N   UNL     1       4.342 -11.451 -45.255  1.00  0.00    -0.239 NA
ATOM      6  C   UNL     1       2.989 -11.391 -45.257  1.00  0.00     0.139 A 
ENDROOT
BRANCH   1   7
ATOM      7  C   UNL     1       0.851 -10.088 -45.227  1.00  0.00     0.259 C 
ATOM      8  N   UNL     1       0.338  -9.217 -44.283  1.00  0.00    -0.322 N 
ATOM      9  O   UNL     1       0.230 -10.795 -46.013  1.00  0.00    -0.269 OA
ATOM     10  H   UNL     1       1.004  -8.652 -43.774  1.00  0.00     0.170 HD
BRANCH   8  11
ATOM     11  C   UNL     1      -1.022  -8.968 -43.997  1.00  0.00     0.043 A 
ATOM     12  C   UNL     1      -5.140  -8.198 -43.169  1.00  0.00     0.009 C 
ATOM     13  C   UNL     1      -5.329  -9.571 -42.459  1.00  0.00     0.124 C 
ATOM     14  C   UNL     1      -3.671  -8.275 -43.479  1.00  0.00    -0.017 A 
ATOM     15  N   UNL     1      -4.274 -10.478 -42.944  1.00  0.00    -0.384 N 
ATOM     16  C   UNL     1      -2.799  -7.286 -43.901  1.00  0.00     0.008 A 
ATOM     17  C   UNL     1      -3.231  -9.587 -43.302  1.00  0.00     0.040 A 
ATOM     18  C   UNL     1      -1.470  -7.638 -44.153  1.00  0.00     0.026 A 
ATOM     19  C   UNL     1      -1.923  -9.952 -43.580  1.00  0.00     0.052 A 
ATOM     20  C   UNL     1      -5.962  -8.124 -44.461  1.00  0.00     0.018 C 
ATOM     21  C   UNL     1      -5.499  -7.040 -42.237  1.00  0.00     0.018 C 
ATOM     22  H   UNL     1      -3.953 -11.172 -42.274  1.00  0.00     0.160 HD
ENDBRANCH   8  11
ENDBRANCH   1   7
BRANCH   6  23
ATOM     23  N   UNL     1       2.246 -12.579 -45.352  1.00  0.00    -0.365 N 
ATOM     24  H   UNL     1       1.365 -12.370 -45.831  1.00  0.00     0.162 HD
BRANCH  23  25
ATOM     25  C   UNL     1       2.046 -13.339 -44.130  1.00  0.00     0.150 C 
BRANCH  25  26
ATOM     26  C   UNL     1       0.984 -14.393 -44.319  1.00  0.00    -0.026 A 
ATOM     27  C   UNL     1       0.571 -14.776 -45.597  1.00  0.00     0.025 A 
ATOM     28  C   UNL     1       0.378 -15.005 -43.217  1.00  0.00     0.025 A 
ATOM     29  C   UNL     1      -0.410 -15.749 -45.717  1.00  0.00     0.111 A 
ATOM     30  C   UNL     1      -0.593 -15.968 -43.440  1.00  0.00     0.111 A 
ATOM     31  N   UNL     1      -0.997 -16.362 -44.668  1.00  0.00    -0.265 NA
ENDBRANCH  25  26
ENDBRANCH  23  25
ENDBRANCH   6  23
TORSDOF 5
ENDMDL
MODEL 8
REMARK VINA RESULT:    -8.514      7.902     10.449
REMARK INTER + INTRA:         -10.943
REMARK INTER:                  -9.780
REMARK INTRA:                  -1.163
REMARK UNBOUND:                 0.059
REMARK SMILES CC1(C)CNc2cc(NC(=O)c3cccnc3NCc3ccncc3)ccc21
REMARK SMILES IDX 12 1 13 2 14 3 15 4 16 5 17 6 10 7 9 8 11 9 8 11 2 12 4 13
REMARK SMILES IDX 28 14 5 15 27 16 6 17 26 18 7 19 1 20 3 21 18 23 19 25 20 26
REMARK SMILES IDX 21 27 25 28 22 29 24 30 23 31
REMARK H PARENT 9 10 5 22 18 24
ROOT
ATOM      1  C   UNL     1       4.243 -11.416 -45.324  1.00  0.00     0.082 A 
ATOM      2  C   UNL     1       4.615 -12.709 -44.930  1.00  0.00     0.019 A 
ATOM      3  C   UNL     1       5.963 -13.023 -44.834  1.00  0.00     0.021 A 
ATOM      4  C   UNL     1       6.880 -12.037 -45.142  1.00  0.00     0.113 A 
ATOM      5  N   UNL     1       6.543 -10.787 -45.535  1.00  0.00    -0.239 NA
ATOM      6  C   UNL     1       5.231 -10.470 -45.637  1.00  0.00     0.139 A 
ENDROOT
BRANCH   1   7
ATOM      7  C   UNL     1       2.807 -11.078 -45.471  1.00  0.00     0.259 C 
ATOM      8  N   UNL     1       2.337 -10.166 -44.544  1.00  0.00    -0.322 N 
ATOM      9  O   UNL     1       2.180 -11.624 -46.372  1.00  0.00    -0.269 OA
ATOM     10  H   UNL     1       3.019  -9.756 -43.920  1.00  0.00     0.170 HD
BRANCH   8  11
ATOM     11  C   UNL     1       1.018  -9.678 -44.415  1.00  0.00     0.043 A 
ATOM     12  C   UNL     1      -2.973  -8.199 -44.063  1.00  0.00     0.009 C 
ATOM     13  C   UNL     1      -3.344  -9.250 -42.976  1.00  0.00     0.124 C 
ATOM     14  C   UNL     1      -1.523  -8.545 -44.263  1.00  0.00    -0.017 A 
ATOM     15  N   UNL     1      -2.411 -10.383 -43.108  1.00  0.00    -0.384 N 
ATOM     16  C   UNL     1      -0.527  -7.848 -44.926  1.00  0.00     0.008 A 
ATOM     17  C   UNL     1      -1.259  -9.780 -43.671  1.00  0.00     0.040 A 
ATOM     18  C   UNL     1       0.747  -8.419 -44.992  1.00  0.00     0.026 A 
ATOM     19  C   UNL     1      -0.006 -10.368 -43.760  1.00  0.00     0.052 A 
ATOM     20  C   UNL     1      -3.767  -8.432 -45.354  1.00  0.00     0.018 C 
ATOM     21  C   UNL     1      -3.187  -6.774 -43.550  1.00  0.00     0.018 C 
ATOM     22  H   UNL     1      -2.188 -10.868 -42.242  1.00  0.00     0.160 HD
ENDBRANCH   8  11
ENDBRANCH   1   7
BRANCH   6  23
ATOM     23  N   UNL     1       4.862  -9.155 -45.967  1.00  0.00    -0.365 N 
ATOM     24  H   UNL     1       4.786  -9.088 -46.986  1.00  0.00     0.162 HD
BRANCH  23  25
ATOM     25  C   UNL     1       5.656  -8.079 -45.398  1.00  0.00     0.150 C 
BRANCH  25  26
ATOM     26  C   UNL     1       4.935  -7.432 -44.241  1.00  0.00    -0.026 A 
ATOM     27  C   UNL     1       5.290  -7.722 -42.922  1.00  0.00     0.025 A 
ATOM     28  C   UNL     1       3.886  -6.534 -44.462  1.00  0.00     0.025 A 
ATOM     29  C   UNL     1       4.597  -7.102 -41.893  1.00  0.00     0.111 A 
ATOM     30  C   UNL     1       3.254  -5.965 -43.367  1.00  0.00     0.111 A 
ATOM     31  N   UNL     1       3.591  -6.222 -42.084  1.00  0.00    -0.265 NA
ENDBRANCH  25  26
ENDBRANCH  23  25
ENDBRANCH   6  23
TORSDOF 5
ENDMDL
MODEL 9
REMARK VINA RESULT:    -8.487      5.372      9.614
REMARK INTER + INTRA:         -10.909
REMARK INTER:                  -9.847
REMARK INTRA:                  -1.062
REMARK UNBOUND:                 0.059
REMARK SMILES CC1(C)CNc2cc(NC(=O)c3cccnc3NCc3ccncc3)ccc21
REMARK SMILES IDX 12 1 13 2 14 3 15 4 16 5 17 6 10 7 9 8 11 9 8 11 2 12 4 13
REMARK SMILES IDX 28 14 5 15 27 16 6 17 26 18 7 19 1 20 3 21 18 23 19 25 20 26
REMARK SMILES IDX 21 27 25 28 22 29 24 30 23 31
REMARK H PARENT 9 10 5 22 18 24
ROOT
ATOM      1  C   UNL     1       2.770  -9.524 -45.095  1.00  0.00     0.082 A 
ATOM      2  C   UNL     1       3.465  -8.342 -45.382  1.00  0.00     0.019 A 
ATOM      3  C   UNL     1       4.768  -8.422 -45.853  1.00  0.00     0.021 A 
ATOM      4  C   UNL     1       5.322  -9.678 -46.009  1.00  0.00     0.113 A 
ATOM      5  N   UNL     1       4.675 -10.831 -45.726  1.00  0.00    -0.239 NA
ATOM      6  C   UNL     1       3.404 -10.765 -45.262  1.00  0.00     0.139 A 
ENDROOT
BRANCH   1   7
ATOM      7  C   UNL     1       1.393  -9.453 -44.552  1.00  0.00     0.259 C 
ATOM      8  N   UNL     1       0.491  -8.794 -45.367  1.00  0.00    -0.322 N 
ATOM      9  O   UNL     1       1.181  -9.966 -43.458  1.00  0.00    -0.269 OA
ATOM     10  H   UNL     1       0.825  -8.504 -46.277  1.00  0.00     0.170 HD
BRANCH   8  11
ATOM     11  C   UNL     1      -0.874  -8.543 -45.107  1.00  0.00     0.043 A 
ATOM     12  C   UNL     1      -5.009  -7.822 -44.320  1.00  0.00     0.009 C 
ATOM     13  C   UNL     1      -4.693  -6.673 -43.319  1.00  0.00     0.124 C 
ATOM     14  C   UNL     1      -3.613  -8.162 -44.763  1.00  0.00    -0.017 A 
ATOM     15  N   UNL     1      -3.318  -6.867 -42.829  1.00  0.00    -0.384 N 
ATOM     16  C   UNL     1      -3.182  -8.944 -45.821  1.00  0.00     0.008 A 
ATOM     17  C   UNL     1      -2.697  -7.565 -43.897  1.00  0.00     0.040 A 
ATOM     18  C   UNL     1      -1.806  -9.125 -45.992  1.00  0.00     0.026 A 
ATOM     19  C   UNL     1      -1.333  -7.765 -44.040  1.00  0.00     0.052 A 
ATOM     20  C   UNL     1      -5.655  -9.017 -43.608  1.00  0.00     0.018 C 
ATOM     21  C   UNL     1      -5.901  -7.332 -45.462  1.00  0.00     0.018 C 
ATOM     22  H   UNL     1      -2.811  -6.015 -42.602  1.00  0.00     0.160 HD
ENDBRANCH   8  11
ENDBRANCH   1   7
BRANCH   6  23
ATOM     23  N   UNL     1       2.689 -11.954 -45.038  1.00  0.00    -0.365 N 
ATOM     24  H   UNL     1       3.015 -12.365 -44.160  1.00  0.00     0.162 HD
BRANCH  23  25
ATOM     25  C   UNL     1       2.649 -12.920 -46.123  1.00  0.00     0.150 C 
BRANCH  25  26
ATOM     26  C   UNL     1       1.480 -13.861 -45.963  1.00  0.00    -0.026 A 
ATOM     27  C   UNL     1       0.689 -14.216 -47.057  1.00  0.00     0.025 A 
ATOM     28  C   UNL     1       1.154 -14.392 -44.710  1.00  0.00     0.025 A 
ATOM     29  C   UNL     1      -0.375 -15.083 -46.858  1.00  0.00     0.111 A 
ATOM     30  C   UNL     1       0.072 -15.252 -44.613  1.00  0.00     0.111 A 
ATOM     31  N   UNL     1      -0.698 -15.617 -45.661  1.00  0.00    -0.265 NA
ENDBRANCH  25  26
ENDBRANCH  23  25
ENDBRANCH   6  23
TORSDOF 5
ENDMDL
MODEL 10
REMARK VINA RESULT:    -8.447      4.568      8.561
REMARK INTER + INTRA:         -10.857
REMARK INTER:                  -9.683
REMARK INTRA:                  -1.174
REMARK UNBOUND:                 0.059
REMARK SMILES CC1(C)CNc2cc(NC(=O)c3cccnc3NCc3ccncc3)ccc21
REMARK SMILES IDX 12 1 13 2 14 3 15 4 16 5 17 6 10 7 9 8 11 9 8 11 2 12 4 13
REMARK SMILES IDX 28 14 5 15 27 16 6 17 26 18 7 19 1 20 3 21 18 23 19 25 20 26
REMARK SMILES IDX 21 27 25 28 22 29 24 30 23 31
REMARK H PARENT 9 10 5 22 18 24
ROOT
ATOM      1  C   UNL     1       3.557 -11.365 -45.496  1.00  0.00     0.082 A 
ATOM      2  C   UNL     1       4.455 -10.289 -45.483  1.00  0.00     0.019 A 
ATOM      3  C   UNL     1       5.809 -10.541 -45.321  1.00  0.00     0.021 A 
ATOM      4  C   UNL     1       6.208 -11.855 -45.170  1.00  0.00     0.113 A 
ATOM      5  N   UNL     1       5.359 -12.908 -45.168  1.00  0.00    -0.239 NA
ATOM      6  C   UNL     1       4.034 -12.674 -45.321  1.00  0.00     0.139 A 
ENDROOT
BRANCH   1   7
ATOM      7  C   UNL     1       2.104 -11.108 -45.627  1.00  0.00     0.259 C 
ATOM      8  N   UNL     1       1.627 -10.096 -44.815  1.00  0.00    -0.322 N 
ATOM      9  O   UNL     1       1.469 -11.798 -46.418  1.00  0.00    -0.269 OA
ATOM     10  H   UNL     1       2.312  -9.577 -44.281  1.00  0.00     0.170 HD
BRANCH   8  11
ATOM     11  C   UNL     1       0.293  -9.647 -44.698  1.00  0.00     0.043 A 
ATOM     12  C   UNL     1      -3.733  -8.276 -44.308  1.00  0.00     0.009 C 
ATOM     13  C   UNL     1      -3.761  -7.719 -45.762  1.00  0.00     0.124 C 
ATOM     14  C   UNL     1      -2.355  -8.879 -44.296  1.00  0.00    -0.017 A 
ATOM     15  N   UNL     1      -2.368  -7.482 -46.180  1.00  0.00    -0.384 N 
ATOM     16  C   UNL     1      -1.772  -9.742 -43.384  1.00  0.00     0.008 A 
ATOM     17  C   UNL     1      -1.640  -8.415 -45.400  1.00  0.00     0.040 A 
ATOM     18  C   UNL     1      -0.445 -10.129 -43.595  1.00  0.00     0.026 A 
ATOM     19  C   UNL     1      -0.314  -8.769 -45.600  1.00  0.00     0.052 A 
ATOM     20  C   UNL     1      -3.837  -7.145 -43.278  1.00  0.00     0.018 C 
ATOM     21  C   UNL     1      -4.842  -9.306 -44.089  1.00  0.00     0.018 C 
ATOM     22  H   UNL     1      -2.183  -7.607 -47.172  1.00  0.00     0.160 HD
ENDBRANCH   8  11
ENDBRANCH   1   7
BRANCH   6  23
ATOM     23  N   UNL     1       3.146 -13.760 -45.400  1.00  0.00    -0.365 N 
ATOM     24  H   UNL     1       2.380 -13.504 -46.029  1.00  0.00     0.162 HD
BRANCH  23  25
ATOM     25  C   UNL     1       2.670 -14.323 -44.148  1.00  0.00     0.150 C 
BRANCH  25  26
ATOM     26  C   UNL     1       1.345 -15.018 -44.339  1.00  0.00    -0.026 A 
ATOM     27  C   UNL     1       0.836 -15.254 -45.618  1.00  0.00     0.025 A 
ATOM     28  C   UNL     1       0.589 -15.435 -43.239  1.00  0.00     0.025 A 
ATOM     29  C   UNL     1      -0.387 -15.897 -45.741  1.00  0.00     0.111 A 
ATOM     30  C   UNL     1      -0.622 -16.069 -43.465  1.00  0.00     0.111 A 
ATOM     31  N   UNL     1      -1.126 -16.319 -44.693  1.00  0.00    -0.265 NA
ENDBRANCH  25  26
ENDBRANCH  23  25
ENDBRANCH   6  23
TORSDOF 5
ENDMDL
MODEL 11
REMARK VINA RESULT:    -8.417      6.305      9.650
REMARK INTER + INTRA:         -10.817
REMARK INTER:                  -9.382
REMARK INTRA:                  -1.435
REMARK UNBOUND:                 0.059
REMARK SMILES CC1(C)CNc2cc(NC(=O)c3cccnc3NCc3ccncc3)ccc21
REMARK SMILES IDX 12 1 13 2 14 3 15 4 16 5 17 6 10 7 9 8 11 9 8 11 2 12 4 13
REMARK SMILES IDX 28 14 5 15 27 16 6 17 26 18 7 19 1 20 3 21 18 23 19 25 20 26
REMARK SMILES IDX 21 27 25 28 22 29 24 30 23 31
REMARK H PARENT 9 10 5 22 18 24
ROOT
ATOM      1  C   UNL     1      -1.000  -8.749 -45.183  1.00  0.00     0.082 A 
ATOM      2  C   UNL     1      -1.421  -7.413 -45.226  1.00  0.00     0.019 A 
ATOM      3  C   UNL     1      -2.641  -7.108 -45.814  1.00  0.00     0.021 A 
ATOM      4  C   UNL     1      -3.382  -8.149 -46.340  1.00  0.00     0.113 A 
ATOM      5  N   UNL     1      -2.989  -9.443 -46.320  1.00  0.00    -0.239 NA
ATOM      6  C   UNL     1      -1.799  -9.752 -45.753  1.00  0.00     0.139 A 
ENDROOT
BRANCH   1   7
ATOM      7  C   UNL     1       0.319  -9.084 -44.595  1.00  0.00     0.259 C 
ATOM      8  N   UNL     1       1.400  -8.566 -45.284  1.00  0.00    -0.322 N 
ATOM      9  O   UNL     1       0.335  -9.776 -43.583  1.00  0.00    -0.269 OA
ATOM     10  H   UNL     1       1.195  -7.947 -46.057  1.00  0.00     0.170 HD
BRANCH   8  11
ATOM     11  C   UNL     1       2.769  -8.739 -44.985  1.00  0.00     0.043 A 
ATOM     12  C   UNL     1       6.919  -9.252 -44.119  1.00  0.00     0.009 C 
ATOM     13  C   UNL     1       6.797  -8.526 -42.747  1.00  0.00     0.124 C 
ATOM     14  C   UNL     1       5.479  -9.220 -44.550  1.00  0.00    -0.017 A 
ATOM     15  N   UNL     1       5.603  -7.665 -42.797  1.00  0.00    -0.384 N 
ATOM     16  C   UNL     1       4.844  -9.899 -45.575  1.00  0.00     0.008 A 
ATOM     17  C   UNL     1       4.777  -8.326 -43.741  1.00  0.00     0.040 A 
ATOM     18  C   UNL     1       3.482  -9.658 -45.784  1.00  0.00     0.026 A 
ATOM     19  C   UNL     1       3.435  -8.057 -43.961  1.00  0.00     0.052 A 
ATOM     20  C   UNL     1       7.793  -8.453 -45.093  1.00  0.00     0.018 C 
ATOM     21  C   UNL     1       7.465 -10.670 -43.947  1.00  0.00     0.018 C 
ATOM     22  H   UNL     1       5.120  -7.537 -41.911  1.00  0.00     0.160 HD
ENDBRANCH   8  11
ENDBRANCH   1   7
BRANCH   6  23
ATOM     23  N   UNL     1      -1.411 -11.099 -45.653  1.00  0.00    -0.365 N 
ATOM     24  H   UNL     1      -0.670 -11.169 -44.950  1.00  0.00     0.162 HD
BRANCH  23  25
ATOM     25  C   UNL     1      -1.072 -11.787 -46.887  1.00  0.00     0.150 C 
BRANCH  25  26
ATOM     26  C   UNL     1      -0.007 -12.828 -46.648  1.00  0.00    -0.026 A 
ATOM     27  C   UNL     1      -0.268 -14.184 -46.852  1.00  0.00     0.025 A 
ATOM     28  C   UNL     1       1.268 -12.459 -46.204  1.00  0.00     0.025 A 
ATOM     29  C   UNL     1       0.744 -15.101 -46.617  1.00  0.00     0.111 A 
ATOM     30  C   UNL     1       2.214 -13.451 -45.999  1.00  0.00     0.111 A 
ATOM     31  N   UNL     1       1.985 -14.766 -46.203  1.00  0.00    -0.265 NA
ENDBRANCH  25  26
ENDBRANCH  23  25
ENDBRANCH   6  23
TORSDOF 5
ENDMDL
MODEL 12
REMARK VINA RESULT:    -8.370      5.132     11.089
REMARK INTER + INTRA:         -10.758
REMARK INTER:                  -9.716
REMARK INTRA:                  -1.041
REMARK UNBOUND:                 0.059
REMARK SMILES CC1(C)CNc2cc(NC(=O)c3cccnc3NCc3ccncc3)ccc21
REMARK SMILES IDX 12 1 13 2 14 3 15 4 16 5 17 6 10 7 9 8 11 9 8 11 2 12 4 13
REMARK SMILES IDX 28 14 5 15 27 16 6 17 26 18 7 19 1 20 3 21 18 23 19 25 20 26
REMARK SMILES IDX 21 27 25 28 22 29 24 30 23 31
REMARK H PARENT 9 10 5 22 18 24
ROOT
ATOM      1  C   UNL     1      -0.873  -7.426 -45.378  1.00  0.00     0.082 A 
ATOM      2  C   UNL     1       0.160  -6.611 -44.895  1.00  0.00     0.019 A 
ATOM      3  C   UNL     1      -0.059  -5.246 -44.775  1.00  0.00     0.021 A 
ATOM      4  C   UNL     1      -1.293  -4.753 -45.151  1.00  0.00     0.113 A 
ATOM      5  N   UNL     1      -2.299  -5.520 -45.631  1.00  0.00    -0.239 NA
ATOM      6  C   UNL     1      -2.097  -6.853 -45.756  1.00  0.00     0.139 A 
ENDROOT
BRANCH   1   7
ATOM      7  C   UNL     1      -0.641  -8.880 -45.550  1.00  0.00     0.259 C 
ATOM      8  N   UNL     1       0.328  -9.406 -44.717  1.00  0.00    -0.322 N 
ATOM      9  O   UNL     1      -1.306  -9.470 -46.395  1.00  0.00    -0.269 OA
ATOM     10  H   UNL     1       0.720  -8.784 -44.021  1.00  0.00     0.170 HD
BRANCH   8  11
ATOM     11  C   UNL     1       0.786 -10.741 -44.670  1.00  0.00     0.043 A 
ATOM     12  C   UNL     1       2.206 -14.766 -44.523  1.00  0.00     0.009 C 
ATOM     13  C   UNL     1       0.992 -15.241 -43.672  1.00  0.00     0.124 C 
ATOM     14  C   UNL     1       1.821 -13.328 -44.733  1.00  0.00    -0.017 A 
ATOM     15  N   UNL     1       0.432 -14.061 -42.990  1.00  0.00    -0.384 N 
ATOM     16  C   UNL     1       2.345 -12.385 -45.601  1.00  0.00     0.008 A 
ATOM     17  C   UNL     1       0.787 -12.996 -43.856  1.00  0.00     0.040 A 
ATOM     18  C   UNL     1       1.816 -11.092 -45.569  1.00  0.00     0.026 A 
ATOM     19  C   UNL     1       0.279 -11.708 -43.796  1.00  0.00     0.052 A 
ATOM     20  C   UNL     1       3.514 -14.865 -43.729  1.00  0.00     0.018 C 
ATOM     21  C   UNL     1       2.310 -15.558 -45.828  1.00  0.00     0.018 C 
ATOM     22  H   UNL     1      -0.572 -14.086 -42.829  1.00  0.00     0.160 HD
ENDBRANCH   8  11
ENDBRANCH   1   7
BRANCH   6  23
ATOM     23  N   UNL     1      -3.155  -7.675 -46.178  1.00  0.00    -0.365 N 
ATOM     24  H   UNL     1      -3.149  -7.708 -47.201  1.00  0.00     0.162 HD
BRANCH  23  25
ATOM     25  C   UNL     1      -4.475  -7.389 -45.641  1.00  0.00     0.150 C 
BRANCH  25  26
ATOM     26  C   UNL     1      -4.785  -8.287 -44.469  1.00  0.00    -0.026 A 
ATOM     27  C   UNL     1      -4.165  -9.532 -44.334  1.00  0.00     0.025 A 
ATOM     28  C   UNL     1      -5.710  -7.900 -43.494  1.00  0.00     0.025 A 
ATOM     29  C   UNL     1      -4.485 -10.321 -43.240  1.00  0.00     0.111 A 
ATOM     30  C   UNL     1      -5.962  -8.759 -42.437  1.00  0.00     0.111 A 
ATOM     31  N   UNL     1      -5.364  -9.960 -42.281  1.00  0.00    -0.265 NA
ENDBRANCH  25  26
ENDBRANCH  23  25
ENDBRANCH   6  23
TORSDOF 5
ENDMDL
MODEL 13
REMARK VINA RESULT:    -8.367      1.924      6.009
REMARK INTER + INTRA:         -10.754
REMARK INTER:                 -10.751
REMARK INTRA:                  -0.002
REMARK UNBOUND:                 0.059
REMARK SMILES CC1(C)CNc2cc(NC(=O)c3cccnc3NCc3ccncc3)ccc21
REMARK SMILES IDX 12 1 13 2 14 3 15 4 16 5 17 6 10 7 9 8 11 9 8 11 2 12 4 13
REMARK SMILES IDX 28 14 5 15 27 16 6 17 26 18 7 19 1 20 3 21 18 23 19 25 20 26
REMARK SMILES IDX 21 27 25 28 22 29 24 30 23 31
REMARK H PARENT 9 10 5 22 18 24
ROOT
ATOM      1  C   UNL     1      -1.845 -20.446 -41.771  1.00  0.00     0.082 A 
ATOM      2  C   UNL     1      -2.643 -21.564 -41.494  1.00  0.00     0.019 A 
ATOM      3  C   UNL     1      -4.015 -21.398 -41.363  1.00  0.00     0.021 A 
ATOM      4  C   UNL     1      -4.528 -20.124 -41.506  1.00  0.00     0.113 A 
ATOM      5  N   UNL     1      -3.775 -19.029 -41.761  1.00  0.00    -0.239 NA
ATOM      6  C   UNL     1      -2.435 -19.178 -41.887  1.00  0.00     0.139 A 
ENDROOT
BRANCH   1   7
ATOM      7  C   UNL     1      -0.375 -20.601 -41.873  1.00  0.00     0.259 C 
ATOM      8  N   UNL     1       0.348 -19.507 -41.432  1.00  0.00    -0.322 N 
ATOM      9  O   UNL     1       0.060 -21.653 -42.330  1.00  0.00    -0.269 OA
ATOM     10  H   UNL     1      -0.178 -18.754 -41.009  1.00  0.00     0.170 HD
BRANCH   8  11
ATOM     11  C   UNL     1       1.751 -19.350 -41.434  1.00  0.00     0.043 A 
ATOM     12  C   UNL     1       5.993 -18.863 -41.400  1.00  0.00     0.009 C 
ATOM     13  C   UNL     1       6.221 -20.157 -42.235  1.00  0.00     0.124 C 
ATOM     14  C   UNL     1       4.490 -18.843 -41.372  1.00  0.00    -0.017 A 
ATOM     15  N   UNL     1       5.036 -21.015 -42.069  1.00  0.00    -0.384 N 
ATOM     16  C   UNL     1       3.622 -17.834 -40.990  1.00  0.00     0.008 A 
ATOM     17  C   UNL     1       4.005 -20.081 -41.793  1.00  0.00     0.040 A 
ATOM     18  C   UNL     1       2.249 -18.092 -41.030  1.00  0.00     0.026 A 
ATOM     19  C   UNL     1       2.647 -20.357 -41.805  1.00  0.00     0.052 A 
ATOM     20  C   UNL     1       6.558 -19.011 -39.982  1.00  0.00     0.018 C 
ATOM     21  C   UNL     1       6.599 -17.642 -42.094  1.00  0.00     0.018 C 
ATOM     22  H   UNL     1       4.802 -21.596 -42.871  1.00  0.00     0.160 HD
ENDBRANCH   8  11
ENDBRANCH   1   7
BRANCH   6  23
ATOM     23  N   UNL     1      -1.646 -18.067 -42.231  1.00  0.00    -0.365 N 
ATOM     24  H   UNL     1      -1.569 -17.461 -41.409  1.00  0.00     0.162 HD
BRANCH  23  25
ATOM     25  C   UNL     1      -2.017 -17.333 -43.428  1.00  0.00     0.150 C 
BRANCH  25  26
ATOM     26  C   UNL     1      -0.848 -16.539 -43.957  1.00  0.00    -0.026 A 
ATOM     27  C   UNL     1       0.077 -15.957 -43.088  1.00  0.00     0.025 A 
ATOM     28  C   UNL     1      -0.668 -16.359 -45.332  1.00  0.00     0.025 A 
ATOM     29  C   UNL     1       1.134 -15.237 -43.623  1.00  0.00     0.111 A 
ATOM     30  C   UNL     1       0.421 -15.622 -45.771  1.00  0.00     0.111 A 
ATOM     31  N   UNL     1       1.334 -15.062 -44.947  1.00  0.00    -0.265 NA
ENDBRANCH  25  26
ENDBRANCH  23  25
ENDBRANCH   6  23
TORSDOF 5
ENDMDL
MODEL 14
REMARK VINA RESULT:    -8.297      6.551     10.792
REMARK INTER + INTRA:         -10.663
REMARK INTER:                  -9.335
REMARK INTRA:                  -1.328
REMARK UNBOUND:                 0.059
REMARK SMILES CC1(C)CNc2cc(NC(=O)c3cccnc3NCc3ccncc3)ccc21
REMARK SMILES IDX 12 1 13 2 14 3 15 4 16 5 17 6 10 7 9 8 11 9 8 11 2 12 4 13
REMARK SMILES IDX 28 14 5 15 27 16 6 17 26 18 7 19 1 20 3 21 18 23 19 25 20 26
REMARK SMILES IDX 21 27 25 28 22 29 24 30 23 31
REMARK H PARENT 9 10 5 22 18 24
ROOT
ATOM      1  C   UNL     1       2.384  -7.630 -46.193  1.00  0.00     0.082 A 
ATOM      2  C   UNL     1       2.640  -6.619 -47.129  1.00  0.00     0.019 A 
ATOM      3  C   UNL     1       3.801  -6.680 -47.886  1.00  0.00     0.021 A 
ATOM      4  C   UNL     1       4.659  -7.741 -47.670  1.00  0.00     0.113 A 
ATOM      5  N   UNL     1       4.438  -8.720 -46.764  1.00  0.00    -0.239 NA
ATOM      6  C   UNL     1       3.310  -8.670 -46.016  1.00  0.00     0.139 A 
ENDROOT
BRANCH   1   7
ATOM      7  C   UNL     1       1.168  -7.557 -45.348  1.00  0.00     0.259 C 
ATOM      8  N   UNL     1       0.009  -7.973 -45.977  1.00  0.00    -0.322 N 
ATOM      9  O   UNL     1       1.292  -7.143 -44.200  1.00  0.00    -0.269 OA
ATOM     10  H   UNL     1       0.108  -8.362 -46.905  1.00  0.00     0.170 HD
BRANCH   8  11
ATOM     11  C   UNL     1      -1.298  -7.989 -45.442  1.00  0.00     0.043 A 
ATOM     12  C   UNL     1      -5.235  -8.029 -43.790  1.00  0.00     0.009 C 
ATOM     13  C   UNL     1      -5.823  -7.219 -44.983  1.00  0.00     0.124 C 
ATOM     14  C   UNL     1      -3.813  -8.170 -44.257  1.00  0.00    -0.017 A 
ATOM     15  N   UNL     1      -4.715  -6.486 -45.618  1.00  0.00    -0.384 N 
ATOM     16  C   UNL     1      -2.798  -8.981 -43.780  1.00  0.00     0.008 A 
ATOM     17  C   UNL     1      -3.588  -7.291 -45.317  1.00  0.00     0.040 A 
ATOM     18  C   UNL     1      -1.540  -8.890 -44.384  1.00  0.00     0.026 A 
ATOM     19  C   UNL     1      -2.336  -7.172 -45.900  1.00  0.00     0.052 A 
ATOM     20  C   UNL     1      -5.300  -7.223 -42.487  1.00  0.00     0.018 C 
ATOM     21  C   UNL     1      -5.951  -9.371 -43.627  1.00  0.00     0.018 C 
ATOM     22  H   UNL     1      -4.806  -6.340 -46.621  1.00  0.00     0.160 HD
ENDBRANCH   8  11
ENDBRANCH   1   7
BRANCH   6  23
ATOM     23  N   UNL     1       3.024  -9.719 -45.126  1.00  0.00    -0.365 N 
ATOM     24  H   UNL     1       3.424  -9.485 -44.214  1.00  0.00     0.162 HD
BRANCH  23  25
ATOM     25  C   UNL     1       3.368 -11.065 -45.553  1.00  0.00     0.150 C 
BRANCH  25  26
ATOM     26  C   UNL     1       2.179 -11.986 -45.437  1.00  0.00    -0.026 A 
ATOM     27  C   UNL     1       2.240 -13.301 -45.905  1.00  0.00     0.025 A 
ATOM     28  C   UNL     1       0.981 -11.542 -44.868  1.00  0.00     0.025 A 
ATOM     29  C   UNL     1       1.120 -14.108 -45.776  1.00  0.00     0.111 A 
ATOM     30  C   UNL     1      -0.084 -12.425 -44.783  1.00  0.00     0.111 A 
ATOM     31  N   UNL     1      -0.041 -13.703 -45.217  1.00  0.00    -0.265 NA
ENDBRANCH  25  26
ENDBRANCH  23  25
ENDBRANCH   6  23
TORSDOF 5
ENDMDL
MODEL 15
REMARK VINA RESULT:    -8.216      6.115      9.586
REMARK INTER + INTRA:         -10.559
REMARK INTER:                  -8.772
REMARK INTRA:                  -1.787
REMARK UNBOUND:                 0.059
REMARK SMILES CC1(C)CNc2cc(NC(=O)c3cccnc3NCc3ccncc3)ccc21
REMARK SMILES IDX 12 1 13 2 14 3 15 4 16 5 17 6 10 7 9 8 11 9 8 11 2 12 4 13
REMARK SMILES IDX 28 14 5 15 27 16 6 17 26 18 7 19 1 20 3 21 18 23 19 25 20 26
REMARK SMILES IDX 21 27 25 28 22 29 24 30 23 31
REMARK H PARENT 9 10 5 22 18 24
ROOT
ATOM      1  C   UNL     1       5.176 -10.015 -45.271  1.00  0.00     0.082 A 
ATOM      2  C   UNL     1       6.082  -9.006 -44.916  1.00  0.00     0.019 A 
ATOM      3  C   UNL     1       7.389  -9.352 -44.605  1.00  0.00     0.021 A 
ATOM      4  C   UNL     1       7.733 -10.689 -44.654  1.00  0.00     0.113 A 
ATOM      5  N   UNL     1       6.872 -11.680 -44.983  1.00  0.00    -0.239 NA
ATOM      6  C   UNL     1       5.592 -11.355 -45.284  1.00  0.00     0.139 A 
ENDROOT
BRANCH   1   7
ATOM      7  C   UNL     1       3.766  -9.664 -45.566  1.00  0.00     0.259 C 
ATOM      8  N   UNL     1       2.966  -9.524 -44.447  1.00  0.00    -0.322 N 
ATOM      9  O   UNL     1       3.441  -9.538 -46.742  1.00  0.00    -0.269 OA
ATOM     10  H   UNL     1       3.425  -9.586 -43.547  1.00  0.00     0.170 HD
BRANCH   8  11
ATOM     11  C   UNL     1       1.586  -9.227 -44.412  1.00  0.00     0.043 A 
ATOM     12  C   UNL     1      -2.586  -8.321 -44.343  1.00  0.00     0.009 C 
ATOM     13  C   UNL     1      -2.909  -9.537 -43.426  1.00  0.00     0.124 C 
ATOM     14  C   UNL     1      -1.090  -8.453 -44.419  1.00  0.00    -0.017 A 
ATOM     15  N   UNL     1      -1.821 -10.517 -43.577  1.00  0.00    -0.384 N 
ATOM     16  C   UNL     1      -0.143  -7.559 -44.887  1.00  0.00     0.008 A 
ATOM     17  C   UNL     1      -0.714  -9.708 -43.940  1.00  0.00     0.040 A 
ATOM     18  C   UNL     1       1.199  -7.951 -44.874  1.00  0.00     0.026 A 
ATOM     19  C   UNL     1       0.610 -10.117 -43.953  1.00  0.00     0.052 A 
ATOM     20  C   UNL     1      -3.215  -8.492 -45.732  1.00  0.00     0.018 C 
ATOM     21  C   UNL     1      -3.044  -7.010 -43.704  1.00  0.00     0.018 C 
ATOM     22  H   UNL     1      -1.615 -11.073 -42.750  1.00  0.00     0.160 HD
ENDBRANCH   8  11
ENDBRANCH   1   7
BRANCH   6  23
ATOM     23  N   UNL     1       4.706 -12.360 -45.704  1.00  0.00    -0.365 N 
ATOM     24  H   UNL     1       4.024 -11.942 -46.343  1.00  0.00     0.162 HD
BRANCH  23  25
ATOM     25  C   UNL     1       4.076 -13.166 -44.672  1.00  0.00     0.150 C 
BRANCH  25  26
ATOM     26  C   UNL     1       2.589 -13.267 -44.899  1.00  0.00    -0.026 A 
ATOM     27  C   UNL     1       2.019 -12.873 -46.112  1.00  0.00     0.025 A 
ATOM     28  C   UNL     1       1.741 -13.747 -43.895  1.00  0.00     0.025 A 
ATOM     29  C   UNL     1       0.646 -12.984 -46.272  1.00  0.00     0.111 A 
ATOM     30  C   UNL     1       0.381 -13.821 -44.151  1.00  0.00     0.111 A 
ATOM     31  N   UNL     1      -0.188 -13.458 -45.321  1.00  0.00    -0.265 NA
ENDBRANCH  25  26
ENDBRANCH  23  25
ENDBRANCH   6  23
TORSDOF 5
ENDMDL
MODEL 16
REMARK VINA RESULT:    -8.207      6.796      8.108
REMARK INTER + INTRA:         -10.547
REMARK INTER:                  -9.497
REMARK INTRA:                  -1.050
REMARK UNBOUND:                 0.059
REMARK SMILES CC1(C)CNc2cc(NC(=O)c3cccnc3NCc3ccncc3)ccc21
REMARK SMILES IDX 12 1 13 2 14 3 15 4 16 5 17 6 10 7 9 8 11 9 8 11 2 12 4 13
REMARK SMILES IDX 28 14 5 15 27 16 6 17 26 18 7 19 1 20 3 21 18 23 19 25 20 26
REMARK SMILES IDX 21 27 25 28 22 29 24 30 23 31
REMARK H PARENT 9 10 5 22 18 24
ROOT
ATOM      1  C   UNL     1       5.091 -14.315 -45.438  1.00  0.00     0.082 A 
ATOM      2  C   UNL     1       4.916 -15.502 -46.163  1.00  0.00     0.019 A 
ATOM      3  C   UNL     1       6.035 -16.196 -46.600  1.00  0.00     0.021 A 
ATOM      4  C   UNL     1       7.278 -15.672 -46.302  1.00  0.00     0.113 A 
ATOM      5  N   UNL     1       7.470 -14.524 -45.614  1.00  0.00    -0.239 NA
ATOM      6  C   UNL     1       6.385 -13.835 -45.186  1.00  0.00     0.139 A 
ENDROOT
BRANCH   1   7
ATOM      7  C   UNL     1       3.905 -13.541 -45.000  1.00  0.00     0.259 C 
ATOM      8  N   UNL     1       3.110 -13.081 -46.033  1.00  0.00    -0.322 N 
ATOM      9  O   UNL     1       3.741 -13.378 -43.796  1.00  0.00    -0.269 OA
ATOM     10  H   UNL     1       3.356 -13.381 -46.967  1.00  0.00     0.170 HD
BRANCH   8  11
ATOM     11  C   UNL     1       1.940 -12.296 -45.930  1.00  0.00     0.043 A 
ATOM     12  C   UNL     1      -1.613  -9.951 -45.595  1.00  0.00     0.009 C 
ATOM     13  C   UNL     1      -0.810  -8.631 -45.397  1.00  0.00     0.124 C 
ATOM     14  C   UNL     1      -0.473 -10.910 -45.803  1.00  0.00    -0.017 A 
ATOM     15  N   UNL     1       0.531  -8.990 -44.905  1.00  0.00    -0.384 N 
ATOM     16  C   UNL     1      -0.484 -12.215 -46.265  1.00  0.00     0.008 A 
ATOM     17  C   UNL     1       0.720 -10.295 -45.424  1.00  0.00     0.040 A 
ATOM     18  C   UNL     1       0.731 -12.902 -46.332  1.00  0.00     0.026 A 
ATOM     19  C   UNL     1       1.925 -10.980 -45.458  1.00  0.00     0.052 A 
ATOM     20  C   UNL     1      -2.402 -10.316 -44.332  1.00  0.00     0.018 C 
ATOM     21  C   UNL     1      -2.547  -9.854 -46.802  1.00  0.00     0.018 C 
ATOM     22  H   UNL     1       1.282  -8.367 -45.192  1.00  0.00     0.160 HD
ENDBRANCH   8  11
ENDBRANCH   1   7
BRANCH   6  23
ATOM     23  N   UNL     1       6.565 -12.682 -44.403  1.00  0.00    -0.365 N 
ATOM     24  H   UNL     1       6.064 -11.909 -44.849  1.00  0.00     0.162 HD
BRANCH  23  25
ATOM     25  C   UNL     1       7.928 -12.327 -44.044  1.00  0.00     0.150 C 
BRANCH  25  26
ATOM     26  C   UNL     1       8.169 -12.540 -42.570  1.00  0.00    -0.026 A 
ATOM     27  C   UNL     1       9.258 -13.291 -42.122  1.00  0.00     0.025 A 
ATOM     28  C   UNL     1       7.301 -11.999 -41.616  1.00  0.00     0.025 A 
ATOM     29  C   UNL     1       9.436 -13.459 -40.757  1.00  0.00     0.111 A 
ATOM     30  C   UNL     1       7.564 -12.221 -40.274  1.00  0.00     0.111 A 
ATOM     31  N   UNL     1       8.618 -12.933 -39.820  1.00  0.00    -0.265 NA
ENDBRANCH  25  26
ENDBRANCH  23  25
ENDBRANCH   6  23
TORSDOF 5
ENDMDL
MODEL 17
REMARK VINA RESULT:    -8.175      5.190     10.723
REMARK INTER + INTRA:         -10.505
REMARK INTER:                  -9.095
REMARK INTRA:                  -1.410
REMARK UNBOUND:                 0.059
REMARK SMILES CC1(C)CNc2cc(NC(=O)c3cccnc3NCc3ccncc3)ccc21
REMARK SMILES IDX 12 1 13 2 14 3 15 4 16 5 17 6 10 7 9 8 11 9 8 11 2 12 4 13
REMARK SMILES IDX 28 14 5 15 27 16 6 17 26 18 7 19 1 20 3 21 18 23 19 25 20 26
REMARK SMILES IDX 21 27 25 28 22 29 24 30 23 31
REMARK H PARENT 9 10 5 22 18 24
ROOT
ATOM      1  C   UNL     1      -0.861  -7.381 -44.822  1.00  0.00     0.082 A 
ATOM      2  C   UNL     1      -2.017  -7.107 -44.078  1.00  0.00     0.019 A 
ATOM      3  C   UNL     1      -2.317  -5.790 -43.760  1.00  0.00     0.021 A 
ATOM      4  C   UNL     1      -1.447  -4.807 -44.190  1.00  0.00     0.113 A 
ATOM      5  N   UNL     1      -0.321  -5.050 -44.898  1.00  0.00    -0.239 NA
ATOM      6  C   UNL     1      -0.015  -6.332 -45.212  1.00  0.00     0.139 A 
ENDROOT
BRANCH   1   7
ATOM      7  C   UNL     1      -0.506  -8.786 -45.135  1.00  0.00     0.259 C 
ATOM      8  N   UNL     1       0.348  -9.376 -44.222  1.00  0.00    -0.322 N 
ATOM      9  O   UNL     1      -0.983  -9.285 -46.148  1.00  0.00    -0.269 OA
ATOM     10  H   UNL     1       0.578  -8.837 -43.397  1.00  0.00     0.170 HD
BRANCH   8  11
ATOM     11  C   UNL     1       0.882 -10.682 -44.268  1.00  0.00     0.043 A 
ATOM     12  C   UNL     1       2.531 -14.620 -44.395  1.00  0.00     0.009 C 
ATOM     13  C   UNL     1       1.279 -15.245 -43.712  1.00  0.00     0.124 C 
ATOM     14  C   UNL     1       2.077 -13.190 -44.493  1.00  0.00    -0.017 A 
ATOM     15  N   UNL     1       0.590 -14.175 -42.970  1.00  0.00    -0.384 N 
ATOM     16  C   UNL     1       2.615 -12.134 -45.209  1.00  0.00     0.008 A 
ATOM     17  C   UNL     1       0.953 -13.007 -43.688  1.00  0.00     0.040 A 
ATOM     18  C   UNL     1       2.007 -10.881 -45.097  1.00  0.00     0.026 A 
ATOM     19  C   UNL     1       0.362 -11.761 -43.546  1.00  0.00     0.052 A 
ATOM     20  C   UNL     1       3.769 -14.733 -43.496  1.00  0.00     0.018 C 
ATOM     21  C   UNL     1       2.797 -15.262 -45.757  1.00  0.00     0.018 C 
ATOM     22  H   UNL     1      -0.421 -14.270 -42.906  1.00  0.00     0.160 HD
ENDBRANCH   8  11
ENDBRANCH   1   7
BRANCH   6  23
ATOM     23  N   UNL     1       1.107  -6.597 -46.014  1.00  0.00    -0.365 N 
ATOM     24  H   UNL     1       1.251  -7.610 -46.041  1.00  0.00     0.162 HD
BRANCH  23  25
ATOM     25  C   UNL     1       2.329  -5.871 -45.709  1.00  0.00     0.150 C 
BRANCH  25  26
ATOM     26  C   UNL     1       3.229  -6.685 -44.814  1.00  0.00    -0.026 A 
ATOM     27  C   UNL     1       3.980  -7.747 -45.323  1.00  0.00     0.025 A 
ATOM     28  C   UNL     1       3.326  -6.403 -43.447  1.00  0.00     0.025 A 
ATOM     29  C   UNL     1       4.792  -8.465 -44.458  1.00  0.00     0.111 A 
ATOM     30  C   UNL     1       4.166  -7.178 -42.664  1.00  0.00     0.111 A 
ATOM     31  N   UNL     1       4.910  -8.201 -43.140  1.00  0.00    -0.265 NA
ENDBRANCH  25  26
ENDBRANCH  23  25
ENDBRANCH   6  23
TORSDOF 5
ENDMDL
MODEL 18
REMARK VINA RESULT:    -8.149      6.390      8.683
REMARK INTER + INTRA:         -10.472
REMARK INTER:                  -9.788
REMARK INTRA:                  -0.684
REMARK UNBOUND:                 0.059
REMARK SMILES CC1(C)CNc2cc(NC(=O)c3cccnc3NCc3ccncc3)ccc21
REMARK SMILES IDX 12 1 13 2 14 3 15 4 16 5 17 6 10 7 9 8 11 9 8 11 2 12 4 13
REMARK SMILES IDX 28 14 5 15 27 16 6 17 26 18 7 19 1 20 3 21 18 23 19 25 20 26
REMARK SMILES IDX 21 27 25 28 22 29 24 30 23 31
REMARK H PARENT 9 10 5 22 18 24
ROOT
ATOM      1  C   UNL     1       3.617 -14.050 -45.260  1.00  0.00     0.082 A 
ATOM      2  C   UNL     1       3.375 -15.357 -45.705  1.00  0.00     0.019 A 
ATOM      3  C   UNL     1       4.413 -16.080 -46.275  1.00  0.00     0.021 A 
ATOM      4  C   UNL     1       5.645 -15.464 -46.384  1.00  0.00     0.113 A 
ATOM      5  N   UNL     1       5.898 -14.201 -45.973  1.00  0.00    -0.239 NA
ATOM      6  C   UNL     1       4.891 -13.484 -45.419  1.00  0.00     0.139 A 
ENDROOT
BRANCH   1   7
ATOM      7  C   UNL     1       2.508 -13.252 -44.687  1.00  0.00     0.259 C 
ATOM      8  N   UNL     1       1.651 -12.707 -45.625  1.00  0.00    -0.322 N 
ATOM      9  O   UNL     1       2.451 -13.144 -43.467  1.00  0.00    -0.269 OA
ATOM     10  H   UNL     1       1.805 -12.969 -46.590  1.00  0.00     0.170 HD
BRANCH   8  11
ATOM     11  C   UNL     1       0.531 -11.882 -45.386  1.00  0.00     0.043 A 
ATOM     12  C   UNL     1      -2.882  -9.417 -44.667  1.00  0.00     0.009 C 
ATOM     13  C   UNL     1      -2.188  -8.675 -43.487  1.00  0.00     0.124 C 
ATOM     14  C   UNL     1      -1.754 -10.312 -45.100  1.00  0.00    -0.017 A 
ATOM     15  N   UNL     1      -1.114  -9.544 -42.978  1.00  0.00    -0.384 N 
ATOM     16  C   UNL     1      -1.615 -11.074 -46.248  1.00  0.00     0.008 A 
ATOM     17  C   UNL     1      -0.767 -10.318 -44.114  1.00  0.00     0.040 A 
ATOM     18  C   UNL     1      -0.463 -11.853 -46.388  1.00  0.00     0.026 A 
ATOM     19  C   UNL     1       0.363 -11.113 -44.231  1.00  0.00     0.052 A 
ATOM     20  C   UNL     1      -4.074 -10.248 -44.176  1.00  0.00     0.018 C 
ATOM     21  C   UNL     1      -3.323  -8.436 -45.754  1.00  0.00     0.018 C 
ATOM     22  H   UNL     1      -0.303  -9.061 -42.600  1.00  0.00     0.160 HD
ENDBRANCH   8  11
ENDBRANCH   1   7
BRANCH   6  23
ATOM     23  N   UNL     1       5.155 -12.199 -44.914  1.00  0.00    -0.365 N 
ATOM     24  H   UNL     1       4.449 -11.557 -45.284  1.00  0.00     0.162 HD
BRANCH  23  25
ATOM     25  C   UNL     1       6.506 -11.688 -45.070  1.00  0.00     0.150 C 
BRANCH  25  26
ATOM     26  C   UNL     1       6.593 -10.251 -44.619  1.00  0.00    -0.026 A 
ATOM     27  C   UNL     1       6.107  -9.215 -45.421  1.00  0.00     0.025 A 
ATOM     28  C   UNL     1       7.174  -9.919 -43.391  1.00  0.00     0.025 A 
ATOM     29  C   UNL     1       6.211  -7.912 -44.962  1.00  0.00     0.111 A 
ATOM     30  C   UNL     1       7.231  -8.586 -43.019  1.00  0.00     0.111 A 
ATOM     31  N   UNL     1       6.755  -7.571 -43.774  1.00  0.00    -0.265 NA
ENDBRANCH  25  26
ENDBRANCH  23  25
ENDBRANCH   6  23
TORSDOF 5
ENDMDL
MODEL 19
REMARK VINA RESULT:    -8.090      5.307      9.983
REMARK INTER + INTRA:         -10.395
REMARK INTER:                  -9.060
REMARK INTRA:                  -1.336
REMARK UNBOUND:                 0.059
REMARK SMILES CC1(C)CNc2cc(NC(=O)c3cccnc3NCc3ccncc3)ccc21
REMARK SMILES IDX 12 1 13 2 14 3 15 4 16 5 17 6 10 7 9 8 11 9 8 11 2 12 4 13
REMARK SMILES IDX 28 14 5 15 27 16 6 17 26 18 7 19 1 20 3 21 18 23 19 25 20 26
REMARK SMILES IDX 21 27 25 28 22 29 24 30 23 31
REMARK H PARENT 9 10 5 22 18 24
ROOT
ATOM      1  C   UNL     1      -2.771  -9.827 -44.861  1.00  0.00     0.082 A 
ATOM      2  C   UNL     1      -3.820 -10.375 -44.111  1.00  0.00     0.019 A 
ATOM      3  C   UNL     1      -4.856  -9.550 -43.697  1.00  0.00     0.021 A 
ATOM      4  C   UNL     1      -4.795  -8.214 -44.043  1.00  0.00     0.113 A 
ATOM      5  N   UNL     1      -3.787  -7.662 -44.756  1.00  0.00    -0.239 NA
ATOM      6  C   UNL     1      -2.768  -8.456 -45.162  1.00  0.00     0.139 A 
ENDROOT
BRANCH   1   7
ATOM      7  C   UNL     1      -1.637 -10.688 -45.275  1.00  0.00     0.259 C 
ATOM      8  N   UNL     1      -0.849 -11.137 -44.231  1.00  0.00    -0.322 N 
ATOM      9  O   UNL     1      -1.498 -10.916 -46.472  1.00  0.00    -0.269 OA
ATOM     10  H   UNL     1      -1.162 -10.914 -43.295  1.00  0.00     0.170 HD
BRANCH   8  11
ATOM     11  C   UNL     1       0.308 -11.940 -44.315  1.00  0.00     0.043 A 
ATOM     12  C   UNL     1       3.831 -14.343 -44.553  1.00  0.00     0.009 C 
ATOM     13  C   UNL     1       3.079 -15.621 -44.078  1.00  0.00     0.124 C 
ATOM     14  C   UNL     1       2.681 -13.375 -44.592  1.00  0.00    -0.017 A 
ATOM     15  N   UNL     1       1.878 -15.190 -43.343  1.00  0.00    -0.384 N 
ATOM     16  C   UNL     1       2.604 -12.111 -45.152  1.00  0.00     0.008 A 
ATOM     17  C   UNL     1       1.592 -13.926 -43.917  1.00  0.00     0.040 A 
ATOM     18  C   UNL     1       1.408 -11.400 -45.016  1.00  0.00     0.026 A 
ATOM     19  C   UNL     1       0.414 -13.215 -43.749  1.00  0.00     0.052 A 
ATOM     20  C   UNL     1       4.877 -13.900 -43.522  1.00  0.00     0.018 C 
ATOM     21  C   UNL     1       4.483 -14.561 -45.919  1.00  0.00     0.018 C 
ATOM     22  H   UNL     1       1.078 -15.814 -43.410  1.00  0.00     0.160 HD
ENDBRANCH   8  11
ENDBRANCH   1   7
BRANCH   6  23
ATOM     23  N   UNL     1      -1.752  -7.918 -45.970  1.00  0.00    -0.365 N 
ATOM     24  H   UNL     1      -0.989  -8.598 -46.024  1.00  0.00     0.162 HD
BRANCH  23  25
ATOM     25  C   UNL     1      -1.282  -6.582 -45.645  1.00  0.00     0.150 C 
BRANCH  25  26
ATOM     26  C   UNL     1       0.151  -6.615 -45.176  1.00  0.00    -0.026 A 
ATOM     27  C   UNL     1       0.824  -7.827 -45.008  1.00  0.00     0.025 A 
ATOM     28  C   UNL     1       0.838  -5.431 -44.886  1.00  0.00     0.025 A 
ATOM     29  C   UNL     1       2.141  -7.804 -44.573  1.00  0.00     0.111 A 
ATOM     30  C   UNL     1       2.153  -5.512 -44.457  1.00  0.00     0.111 A 
ATOM     31  N   UNL     1       2.826  -6.673 -44.301  1.00  0.00    -0.265 NA
ENDBRANCH  25  26
ENDBRANCH  23  25
ENDBRANCH   6  23
TORSDOF 5
ENDMDL
MODEL 20
REMARK VINA RESULT:    -8.082      6.327     11.161
REMARK INTER + INTRA:         -10.385
REMARK INTER:                  -9.005
REMARK INTRA:                  -1.380
REMARK UNBOUND:                 0.059
REMARK SMILES CC1(C)CNc2cc(NC(=O)c3cccnc3NCc3ccncc3)ccc21
REMARK SMILES IDX 12 1 13 2 14 3 15 4 16 5 17 6 10 7 9 8 11 9 8 11 2 12 4 13
REMARK SMILES IDX 28 14 5 15 27 16 6 17 26 18 7 19 1 20 3 21 18 23 19 25 20 26
REMARK SMILES IDX 21 27 25 28 22 29 24 30 23 31
REMARK H PARENT 9 10 5 22 18 24
ROOT
ATOM      1  C   UNL     1      -3.988  -7.608 -44.232  1.00  0.00     0.082 A 
ATOM      2  C   UNL     1      -5.089  -8.160 -43.562  1.00  0.00     0.019 A 
ATOM      3  C   UNL     1      -5.952  -7.318 -42.875  1.00  0.00     0.021 A 
ATOM      4  C   UNL     1      -5.676  -5.964 -42.881  1.00  0.00     0.113 A 
ATOM      5  N   UNL     1      -4.614  -5.412 -43.511  1.00  0.00    -0.239 NA
ATOM      6  C   UNL     1      -3.761  -6.224 -44.181  1.00  0.00     0.139 A 
ENDROOT
BRANCH   1   7
ATOM      7  C   UNL     1      -3.034  -8.498 -44.935  1.00  0.00     0.259 C 
ATOM      8  N   UNL     1      -2.390  -9.407 -44.115  1.00  0.00    -0.322 N 
ATOM      9  O   UNL     1      -2.900  -8.353 -46.145  1.00  0.00    -0.269 OA
ATOM     10  H   UNL     1      -2.686  -9.439 -43.148  1.00  0.00     0.170 HD
BRANCH   8  11
ATOM     11  C   UNL     1      -1.414 -10.356 -44.488  1.00  0.00     0.043 A 
ATOM     12  C   UNL     1       1.536 -13.244 -45.582  1.00  0.00     0.009 C 
ATOM     13  C   UNL     1       0.961 -13.393 -47.021  1.00  0.00     0.124 C 
ATOM     14  C   UNL     1       0.621 -12.173 -45.055  1.00  0.00    -0.017 A 
ATOM     15  N   UNL     1      -0.446 -12.956 -46.992  1.00  0.00    -0.384 N 
ATOM     16  C   UNL     1       0.724 -11.402 -43.909  1.00  0.00     0.008 A 
ATOM     17  C   UNL     1      -0.468 -12.034 -45.915  1.00  0.00     0.040 A 
ATOM     18  C   UNL     1      -0.297 -10.487 -43.635  1.00  0.00     0.026 A 
ATOM     19  C   UNL     1      -1.500 -11.152 -45.634  1.00  0.00     0.052 A 
ATOM     20  C   UNL     1       1.368 -14.540 -44.780  1.00  0.00     0.018 C 
ATOM     21  C   UNL     1       3.004 -12.819 -45.614  1.00  0.00     0.018 C 
ATOM     22  H   UNL     1      -0.788 -12.530 -47.849  1.00  0.00     0.160 HD
ENDBRANCH   8  11
ENDBRANCH   1   7
BRANCH   6  23
ATOM     23  N   UNL     1      -2.698  -5.660 -44.907  1.00  0.00    -0.365 N 
ATOM     24  H   UNL     1      -2.509  -6.257 -45.716  1.00  0.00     0.162 HD
BRANCH  23  25
ATOM     25  C   UNL     1      -1.491  -5.328 -44.169  1.00  0.00     0.150 C 
BRANCH  25  26
ATOM     26  C   UNL     1      -0.260  -5.700 -44.956  1.00  0.00    -0.026 A 
ATOM     27  C   UNL     1       0.266  -6.993 -44.902  1.00  0.00     0.025 A 
ATOM     28  C   UNL     1       0.394  -4.754 -45.753  1.00  0.00     0.025 A 
ATOM     29  C   UNL     1       1.400  -7.284 -45.644  1.00  0.00     0.111 A 
ATOM     30  C   UNL     1       1.522  -5.142 -46.458  1.00  0.00     0.111 A 
ATOM     31  N   UNL     1       2.038  -6.390 -46.429  1.00  0.00    -0.265 NA
ENDBRANCH  25  26
ENDBRANCH  23  25
ENDBRANCH   6  23
TORSDOF 5
ENDMDL
