MODEL 1
REMARK VINA RESULT:    -8.956      0.000      0.000
REMARK INTER + INTRA:         -15.934
REMARK INTER:                 -14.191
REMARK INTRA:                  -1.743
REMARK UNBOUND:                -1.743
REMARK SMILES C=CC(=O)Nc1cc(Nc2nccc(-c3cn(C)c4ccccc34)n2)c(OC)cc1N(C)CCN(C)C
REMARK SMILES IDX 6 1 7 2 8 3 26 4 29 5 30 6 5 7 3 8 4 9 2 11 1 12 31 13 32 14
REMARK SMILES IDX 33 15 34 16 35 17 36 18 37 19 9 20 10 22 11 23 25 24 12 25
REMARK SMILES IDX 14 26 13 27 15 28 16 29 24 30 17 31 23 32 19 33 22 34 20 35
REMARK SMILES IDX 21 36 18 37 27 38 28 39
REMARK H PARENT 5 10 9 21
ROOT
ATOM      1  C   UNL     1      -1.169  -9.715 -43.843  1.00  0.00     0.067 A 
ATOM      2  C   UNL     1      -0.767 -11.068 -43.818  1.00  0.00     0.058 A 
ATOM      3  C   UNL     1       0.412 -11.491 -44.431  1.00  0.00     0.086 A 
ATOM      4  C   UNL     1       1.165 -10.527 -45.116  1.00  0.00     0.144 A 
ATOM      5  C   UNL     1       0.780  -9.187 -45.174  1.00  0.00     0.076 A 
ATOM      6  C   UNL     1      -0.415  -8.760 -44.571  1.00  0.00     0.064 A 
ENDROOT
BRANCH   1   7
ATOM      7  N   UNL     1      -2.369  -9.420 -43.150  1.00  0.00    -0.321 N 
ATOM      8  C   UNL     1      -3.613  -9.985 -43.369  1.00  0.00     0.247 C 
ATOM      9  O   UNL     1      -3.976 -10.704 -44.292  1.00  0.00    -0.270 OA
ATOM     10  H   UNL     1      -2.348  -8.574 -42.594  1.00  0.00     0.170 HD
BRANCH   8  11
ATOM     11  C   UNL     1      -4.591  -9.530 -42.330  1.00  0.00     0.064 C 
ATOM     12  C   UNL     1      -5.909  -9.556 -42.562  1.00  0.00     0.014 C 
ENDBRANCH   8  11
ENDBRANCH   1   7
BRANCH   6  13
ATOM     13  N   UNL     1      -0.931  -7.466 -44.825  1.00  0.00    -0.372 N 
ATOM     14  C   UNL     1       0.080  -6.411 -44.980  1.00  0.00     0.143 C 
BRANCH  13  15
ATOM     15  C   UNL     1      -1.995  -7.502 -45.851  1.00  0.00     0.131 C 
BRANCH  15  16
ATOM     16  C   UNL     1      -3.080  -6.437 -45.575  1.00  0.00     0.105 C 
BRANCH  16  17
ATOM     17  N   UNL     1      -4.210  -6.937 -44.753  1.00  0.00    -0.308 NA
ATOM     18  C   UNL     1      -5.305  -7.374 -45.632  1.00  0.00     0.105 C 
ATOM     19  C   UNL     1      -4.701  -5.903 -43.834  1.00  0.00     0.105 C 
ENDBRANCH  16  17
ENDBRANCH  15  16
ENDBRANCH  13  15
ENDBRANCH   6  13
BRANCH   3  20
ATOM     20  N   UNL     1       0.848 -12.823 -44.411  1.00  0.00    -0.321 N 
ATOM     21  H   UNL     1       1.850 -12.934 -44.325  1.00  0.00     0.170 HD
BRANCH  20  22
ATOM     22  C   UNL     1       0.309 -13.965 -45.004  1.00  0.00     0.227 A 
ATOM     23  N   UNL     1       0.308 -14.136 -46.336  1.00  0.00    -0.221 NA
ATOM     24  N   UNL     1      -0.138 -14.885 -44.137  1.00  0.00    -0.213 NA
ATOM     25  C   UNL     1      -0.184 -15.301 -46.800  1.00  0.00     0.117 A 
ATOM     26  C   UNL     1      -0.632 -16.043 -44.635  1.00  0.00     0.078 A 
ATOM     27  C   UNL     1      -0.679 -16.291 -45.987  1.00  0.00     0.049 A 
BRANCH  26  28
ATOM     28  C   UNL     1      -1.109 -16.998 -43.633  1.00  0.00     0.026 A 
ATOM     29  C   UNL     1      -0.221 -17.754 -42.887  1.00  0.00     0.096 A 
ATOM     30  C   UNL     1      -2.431 -17.391 -43.210  1.00  0.00     0.009 A 
ATOM     31  N   UNL     1      -0.925 -18.538 -42.023  1.00  0.00    -0.350 N 
ATOM     32  C   UNL     1      -3.754 -17.055 -43.591  1.00  0.00     0.011 A 
ATOM     33  C   UNL     1      -2.276 -18.339 -42.185  1.00  0.00     0.048 A 
ATOM     34  C   UNL     1      -4.850 -17.626 -42.930  1.00  0.00     0.001 A 
ATOM     35  C   UNL     1      -3.369 -18.923 -41.520  1.00  0.00     0.027 A 
ATOM     36  C   UNL     1      -4.658 -18.543 -41.902  1.00  0.00     0.002 A 
ATOM     37  C   UNL     1      -0.326 -19.469 -41.091  1.00  0.00     0.149 C 
ENDBRANCH  26  28
ENDBRANCH  20  22
ENDBRANCH   3  20
BRANCH   4  38
ATOM     38  O   UNL     1       2.311 -10.920 -45.763  1.00  0.00    -0.494 OA
ATOM     39  C   UNL     1       3.332  -9.926 -45.604  1.00  0.00     0.278 C 
ENDBRANCH   4  38
TORSDOF 10
ENDMDL
MODEL 2
REMARK VINA RESULT:    -8.500      0.733      2.089
REMARK INTER + INTRA:         -15.213
REMARK INTER:                 -13.646
REMARK INTRA:                  -1.567
REMARK UNBOUND:                -1.743
REMARK SMILES C=CC(=O)Nc1cc(Nc2nccc(-c3cn(C)c4ccccc34)n2)c(OC)cc1N(C)CCN(C)C
REMARK SMILES IDX 6 1 7 2 8 3 26 4 29 5 30 6 5 7 3 8 4 9 2 11 1 12 31 13 32 14
REMARK SMILES IDX 33 15 34 16 35 17 36 18 37 19 9 20 10 22 11 23 25 24 12 25
REMARK SMILES IDX 14 26 13 27 15 28 16 29 24 30 17 31 23 32 19 33 22 34 20 35
REMARK SMILES IDX 21 36 18 37 27 38 28 39
REMARK H PARENT 5 10 9 21
ROOT
ATOM      1  C   UNL     1      -1.172  -9.661 -43.790  1.00  0.00     0.067 A 
ATOM      2  C   UNL     1      -0.748 -11.007 -43.772  1.00  0.00     0.058 A 
ATOM      3  C   UNL     1       0.430 -11.409 -44.401  1.00  0.00     0.086 A 
ATOM      4  C   UNL     1       1.158 -10.431 -45.094  1.00  0.00     0.144 A 
ATOM      5  C   UNL     1       0.751  -9.098 -45.144  1.00  0.00     0.076 A 
ATOM      6  C   UNL     1      -0.444  -8.692 -44.525  1.00  0.00     0.064 A 
ENDROOT
BRANCH   1   7
ATOM      7  N   UNL     1      -2.368  -9.387 -43.081  1.00  0.00    -0.321 N 
ATOM      8  C   UNL     1      -3.618  -9.930 -43.322  1.00  0.00     0.247 C 
ATOM      9  O   UNL     1      -3.989 -10.603 -44.275  1.00  0.00    -0.270 OA
ATOM     10  H   UNL     1      -2.339  -8.567 -42.487  1.00  0.00     0.170 HD
BRANCH   8  11
ATOM     11  C   UNL     1      -4.589  -9.514 -42.261  1.00  0.00     0.064 C 
ATOM     12  C   UNL     1      -5.894  -9.389 -42.529  1.00  0.00     0.014 C 
ENDBRANCH   8  11
ENDBRANCH   1   7
BRANCH   6  13
ATOM     13  N   UNL     1      -0.984  -7.407 -44.770  1.00  0.00    -0.372 N 
ATOM     14  C   UNL     1       0.007  -6.332 -44.923  1.00  0.00     0.143 C 
BRANCH  13  15
ATOM     15  C   UNL     1      -2.051  -7.456 -45.793  1.00  0.00     0.131 C 
BRANCH  15  16
ATOM     16  C   UNL     1      -2.755  -6.089 -45.939  1.00  0.00     0.105 C 
BRANCH  16  17
ATOM     17  N   UNL     1      -4.151  -6.081 -45.434  1.00  0.00    -0.308 NA
ATOM     18  C   UNL     1      -4.153  -5.800 -43.990  1.00  0.00     0.105 C 
ATOM     19  C   UNL     1      -4.817  -7.365 -45.685  1.00  0.00     0.105 C 
ENDBRANCH  16  17
ENDBRANCH  15  16
ENDBRANCH  13  15
ENDBRANCH   6  13
BRANCH   3  20
ATOM     20  N   UNL     1       0.889 -12.734 -44.389  1.00  0.00    -0.321 N 
ATOM     21  H   UNL     1       1.895 -12.828 -44.338  1.00  0.00     0.170 HD
BRANCH  20  22
ATOM     22  C   UNL     1       0.348 -13.888 -44.956  1.00  0.00     0.227 A 
ATOM     23  N   UNL     1       0.196 -14.018 -46.285  1.00  0.00    -0.221 NA
ATOM     24  N   UNL     1       0.062 -14.860 -44.078  1.00  0.00    -0.213 NA
ATOM     25  C   UNL     1      -0.282 -15.196 -46.730  1.00  0.00     0.117 A 
ATOM     26  C   UNL     1      -0.422 -16.030 -44.557  1.00  0.00     0.078 A 
ATOM     27  C   UNL     1      -0.618 -16.239 -45.902  1.00  0.00     0.049 A 
BRANCH  26  28
ATOM     28  C   UNL     1      -0.718 -17.043 -43.542  1.00  0.00     0.026 A 
ATOM     29  C   UNL     1      -1.977 -17.610 -43.446  1.00  0.00     0.096 A 
ATOM     30  C   UNL     1       0.075 -17.638 -42.495  1.00  0.00     0.009 A 
ATOM     31  N   UNL     1      -1.972 -18.529 -42.440  1.00  0.00    -0.350 N 
ATOM     32  C   UNL     1       1.400 -17.475 -42.016  1.00  0.00     0.011 A 
ATOM     33  C   UNL     1      -0.735 -18.579 -41.841  1.00  0.00     0.048 A 
ATOM     34  C   UNL     1       1.874 -18.262 -40.958  1.00  0.00     0.001 A 
ATOM     35  C   UNL     1      -0.271 -19.371 -40.774  1.00  0.00     0.027 A 
ATOM     36  C   UNL     1       1.050 -19.203 -40.351  1.00  0.00     0.002 A 
ATOM     37  C   UNL     1      -3.122 -19.314 -42.044  1.00  0.00     0.149 C 
ENDBRANCH  26  28
ENDBRANCH  20  22
ENDBRANCH   3  20
BRANCH   4  38
ATOM     38  O   UNL     1       2.302 -10.804 -45.756  1.00  0.00    -0.494 OA
ATOM     39  C   UNL     1       3.284  -9.763 -45.668  1.00  0.00     0.278 C 
ENDBRANCH   4  38
TORSDOF 10
ENDMDL
MODEL 3
REMARK VINA RESULT:    -8.281      1.726      3.777
REMARK INTER + INTRA:         -14.865
REMARK INTER:                 -13.440
REMARK INTRA:                  -1.426
REMARK UNBOUND:                -1.743
REMARK SMILES C=CC(=O)Nc1cc(Nc2nccc(-c3cn(C)c4ccccc34)n2)c(OC)cc1N(C)CCN(C)C
REMARK SMILES IDX 6 1 7 2 8 3 26 4 29 5 30 6 5 7 3 8 4 9 2 11 1 12 31 13 32 14
REMARK SMILES IDX 33 15 34 16 35 17 36 18 37 19 9 20 10 22 11 23 25 24 12 25
REMARK SMILES IDX 14 26 13 27 15 28 16 29 24 30 17 31 23 32 19 33 22 34 20 35
REMARK SMILES IDX 21 36 18 37 27 38 28 39
REMARK H PARENT 5 10 9 21
ROOT
ATOM      1  C   UNL     1       1.690  -8.993 -44.212  1.00  0.00     0.067 A 
ATOM      2  C   UNL     1       1.452 -10.297 -43.727  1.00  0.00     0.058 A 
ATOM      3  C   UNL     1       0.308 -11.011 -44.081  1.00  0.00     0.086 A 
ATOM      4  C   UNL     1      -0.627 -10.365 -44.904  1.00  0.00     0.144 A 
ATOM      5  C   UNL     1      -0.427  -9.070 -45.381  1.00  0.00     0.076 A 
ATOM      6  C   UNL     1       0.718  -8.342 -45.013  1.00  0.00     0.064 A 
ENDROOT
BRANCH   1   7
ATOM      7  N   UNL     1       2.909  -8.400 -43.801  1.00  0.00    -0.321 N 
ATOM      8  C   UNL     1       4.129  -8.480 -44.448  1.00  0.00     0.247 C 
ATOM      9  O   UNL     1       4.454  -9.200 -45.385  1.00  0.00    -0.270 OA
ATOM     10  H   UNL     1       2.926  -8.069 -42.844  1.00  0.00     0.170 HD
BRANCH   8  11
ATOM     11  C   UNL     1       5.137  -7.590 -43.790  1.00  0.00     0.064 C 
ATOM     12  C   UNL     1       5.255  -7.544 -42.458  1.00  0.00     0.014 C 
ENDBRANCH   8  11
ENDBRANCH   1   7
BRANCH   6  13
ATOM     13  N   UNL     1       0.814  -6.957 -45.292  1.00  0.00    -0.372 N 
ATOM     14  C   UNL     1       1.759  -6.600 -46.360  1.00  0.00     0.143 C 
BRANCH  13  15
ATOM     15  C   UNL     1      -0.522  -6.329 -45.371  1.00  0.00     0.131 C 
BRANCH  15  16
ATOM     16  C   UNL     1      -0.771  -5.382 -44.175  1.00  0.00     0.105 C 
BRANCH  16  17
ATOM     17  N   UNL     1      -2.180  -5.363 -43.713  1.00  0.00    -0.308 NA
ATOM     18  C   UNL     1      -2.634  -6.738 -43.455  1.00  0.00     0.105 C 
ATOM     19  C   UNL     1      -3.061  -4.734 -44.706  1.00  0.00     0.105 C 
ENDBRANCH  16  17
ENDBRANCH  15  16
ENDBRANCH  13  15
ENDBRANCH   6  13
BRANCH   3  20
ATOM     20  N   UNL     1       0.049 -12.313 -43.631  1.00  0.00    -0.321 N 
ATOM     21  H   UNL     1       0.255 -12.466 -42.652  1.00  0.00     0.170 HD
BRANCH  20  22
ATOM     22  C   UNL     1       0.094 -13.534 -44.306  1.00  0.00     0.227 A 
ATOM     23  N   UNL     1       0.600 -13.638 -45.546  1.00  0.00    -0.221 NA
ATOM     24  N   UNL     1      -0.344 -14.581 -43.593  1.00  0.00    -0.213 NA
ATOM     25  C   UNL     1       0.648 -14.872 -46.082  1.00  0.00     0.117 A 
ATOM     26  C   UNL     1      -0.287 -15.808 -44.161  1.00  0.00     0.078 A 
ATOM     27  C   UNL     1       0.206 -15.998 -45.431  1.00  0.00     0.049 A 
BRANCH  26  28
ATOM     28  C   UNL     1      -0.788 -16.904 -43.330  1.00  0.00     0.026 A 
ATOM     29  C   UNL     1       0.081 -17.730 -42.637  1.00  0.00     0.096 A 
ATOM     30  C   UNL     1      -2.118 -17.387 -43.048  1.00  0.00     0.009 A 
ATOM     31  N   UNL     1      -0.645 -18.643 -41.933  1.00  0.00    -0.350 N 
ATOM     32  C   UNL     1      -3.427 -17.037 -43.463  1.00  0.00     0.011 A 
ATOM     33  C   UNL     1      -1.990 -18.461 -42.152  1.00  0.00     0.048 A 
ATOM     34  C   UNL     1      -4.540 -17.723 -42.955  1.00  0.00     0.001 A 
ATOM     35  C   UNL     1      -3.099 -19.160 -41.642  1.00  0.00     0.027 A 
ATOM     36  C   UNL     1      -4.376 -18.766 -42.051  1.00  0.00     0.002 A 
ATOM     37  C   UNL     1      -0.069 -19.677 -41.099  1.00  0.00     0.149 C 
ENDBRANCH  26  28
ENDBRANCH  20  22
ENDBRANCH   3  20
BRANCH   4  38
ATOM     38  O   UNL     1      -1.783 -11.027 -45.238  1.00  0.00    -0.494 OA
ATOM     39  C   UNL     1      -2.923 -10.308 -44.749  1.00  0.00     0.278 C 
ENDBRANCH   4  38
TORSDOF 10
ENDMDL
MODEL 4
REMARK VINA RESULT:    -8.113      2.191      4.473
REMARK INTER + INTRA:         -14.600
REMARK INTER:                 -13.396
REMARK INTRA:                  -1.204
REMARK UNBOUND:                -1.743
REMARK SMILES C=CC(=O)Nc1cc(Nc2nccc(-c3cn(C)c4ccccc34)n2)c(OC)cc1N(C)CCN(C)C
REMARK SMILES IDX 6 1 7 2 8 3 26 4 29 5 30 6 5 7 3 8 4 9 2 11 1 12 31 13 32 14
REMARK SMILES IDX 33 15 34 16 35 17 36 18 37 19 9 20 10 22 11 23 25 24 12 25
REMARK SMILES IDX 14 26 13 27 15 28 16 29 24 30 17 31 23 32 19 33 22 34 20 35
REMARK SMILES IDX 21 36 18 37 27 38 28 39
REMARK H PARENT 5 10 9 21
ROOT
ATOM      1  C   UNL     1       1.470  -8.833 -44.253  1.00  0.00     0.067 A 
ATOM      2  C   UNL     1       1.288 -10.177 -43.863  1.00  0.00     0.058 A 
ATOM      3  C   UNL     1       0.197 -10.925 -44.305  1.00  0.00     0.086 A 
ATOM      4  C   UNL     1      -0.743 -10.275 -45.119  1.00  0.00     0.144 A 
ATOM      5  C   UNL     1      -0.597  -8.943 -45.503  1.00  0.00     0.076 A 
ATOM      6  C   UNL     1       0.492  -8.182 -45.047  1.00  0.00     0.064 A 
ENDROOT
BRANCH   1   7
ATOM      7  N   UNL     1       2.641  -8.206 -43.759  1.00  0.00    -0.321 N 
ATOM      8  C   UNL     1       3.910  -8.274 -44.304  1.00  0.00     0.247 C 
ATOM      9  O   UNL     1       4.324  -9.007 -45.194  1.00  0.00    -0.270 OA
ATOM     10  H   UNL     1       2.573  -7.853 -42.812  1.00  0.00     0.170 HD
BRANCH   8  11
ATOM     11  C   UNL     1       4.845  -7.349 -43.588  1.00  0.00     0.064 C 
ATOM     12  C   UNL     1       5.471  -7.729 -42.468  1.00  0.00     0.014 C 
ENDBRANCH   8  11
ENDBRANCH   1   7
BRANCH   6  13
ATOM     13  N   UNL     1       0.523  -6.779 -45.232  1.00  0.00    -0.372 N 
ATOM     14  C   UNL     1       1.478  -6.303 -46.243  1.00  0.00     0.143 C 
BRANCH  13  15
ATOM     15  C   UNL     1      -0.843  -6.217 -45.314  1.00  0.00     0.131 C 
BRANCH  15  16
ATOM     16  C   UNL     1      -1.174  -5.359 -44.073  1.00  0.00     0.105 C 
BRANCH  16  17
ATOM     17  N   UNL     1      -2.602  -5.418 -43.671  1.00  0.00    -0.308 NA
ATOM     18  C   UNL     1      -2.987  -6.815 -43.420  1.00  0.00     0.105 C 
ATOM     19  C   UNL     1      -3.472  -4.848 -44.707  1.00  0.00     0.105 C 
ENDBRANCH  16  17
ENDBRANCH  15  16
ENDBRANCH  13  15
ENDBRANCH   6  13
BRANCH   3  20
ATOM     20  N   UNL     1      -0.005 -12.266 -43.950  1.00  0.00    -0.321 N 
ATOM     21  H   UNL     1      -0.702 -12.407 -43.229  1.00  0.00     0.170 HD
BRANCH  20  22
ATOM     22  C   UNL     1       0.872 -13.351 -43.960  1.00  0.00     0.227 A 
ATOM     23  N   UNL     1       2.115 -13.250 -44.458  1.00  0.00    -0.221 NA
ATOM     24  N   UNL     1       0.393 -14.460 -43.379  1.00  0.00    -0.213 NA
ATOM     25  C   UNL     1       2.899 -14.342 -44.365  1.00  0.00     0.117 A 
ATOM     26  C   UNL     1       1.203 -15.542 -43.306  1.00  0.00     0.078 A 
ATOM     27  C   UNL     1       2.485 -15.525 -43.802  1.00  0.00     0.049 A 
BRANCH  26  28
ATOM     28  C   UNL     1       0.613 -16.719 -42.666  1.00  0.00     0.026 A 
ATOM     29  C   UNL     1      -0.726 -17.027 -42.831  1.00  0.00     0.096 A 
ATOM     30  C   UNL     1       1.157 -17.732 -41.794  1.00  0.00     0.009 A 
ATOM     31  N   UNL     1      -1.004 -18.174 -42.151  1.00  0.00    -0.350 N 
ATOM     32  C   UNL     1       2.420 -17.979 -41.199  1.00  0.00     0.011 A 
ATOM     33  C   UNL     1       0.122 -18.638 -41.511  1.00  0.00     0.048 A 
ATOM     34  C   UNL     1       2.616 -19.112 -40.397  1.00  0.00     0.001 A 
ATOM     35  C   UNL     1       0.307 -19.774 -40.703  1.00  0.00     0.027 A 
ATOM     36  C   UNL     1       1.574 -20.001 -40.159  1.00  0.00     0.002 A 
ATOM     37  C   UNL     1      -2.311 -18.793 -42.090  1.00  0.00     0.149 C 
ENDBRANCH  26  28
ENDBRANCH  20  22
ENDBRANCH   3  20
BRANCH   4  38
ATOM     38  O   UNL     1      -1.849 -10.974 -45.538  1.00  0.00    -0.494 OA
ATOM     39  C   UNL     1      -1.741 -11.275 -46.936  1.00  0.00     0.278 C 
ENDBRANCH   4  38
TORSDOF 10
ENDMDL
MODEL 5
REMARK VINA RESULT:    -8.076      1.541      2.854
REMARK INTER + INTRA:         -14.541
REMARK INTER:                 -13.162
REMARK INTRA:                  -1.379
REMARK UNBOUND:                -1.743
REMARK SMILES C=CC(=O)Nc1cc(Nc2nccc(-c3cn(C)c4ccccc34)n2)c(OC)cc1N(C)CCN(C)C
REMARK SMILES IDX 6 1 7 2 8 3 26 4 29 5 30 6 5 7 3 8 4 9 2 11 1 12 31 13 32 14
REMARK SMILES IDX 33 15 34 16 35 17 36 18 37 19 9 20 10 22 11 23 25 24 12 25
REMARK SMILES IDX 14 26 13 27 15 28 16 29 24 30 17 31 23 32 19 33 22 34 20 35
REMARK SMILES IDX 21 36 18 37 27 38 28 39
REMARK H PARENT 5 10 9 21
ROOT
ATOM      1  C   UNL     1      -0.979  -9.196 -44.460  1.00  0.00     0.067 A 
ATOM      2  C   UNL     1      -0.914 -10.556 -44.092  1.00  0.00     0.058 A 
ATOM      3  C   UNL     1       0.303 -11.229 -43.992  1.00  0.00     0.086 A 
ATOM      4  C   UNL     1       1.465 -10.514 -44.318  1.00  0.00     0.144 A 
ATOM      5  C   UNL     1       1.428  -9.174 -44.704  1.00  0.00     0.076 A 
ATOM      6  C   UNL     1       0.201  -8.497 -44.821  1.00  0.00     0.064 A 
ENDROOT
BRANCH   1   7
ATOM      7  N   UNL     1      -2.277  -8.629 -44.486  1.00  0.00    -0.321 N 
ATOM      8  C   UNL     1      -3.138  -8.580 -45.569  1.00  0.00     0.247 C 
ATOM      9  O   UNL     1      -2.908  -8.843 -46.743  1.00  0.00    -0.270 OA
ATOM     10  H   UNL     1      -2.501  -8.028 -43.703  1.00  0.00     0.170 HD
BRANCH   8  11
ATOM     11  C   UNL     1      -4.475  -8.046 -45.158  1.00  0.00     0.064 C 
ATOM     12  C   UNL     1      -5.169  -8.610 -44.163  1.00  0.00     0.014 C 
ENDBRANCH   8  11
ENDBRANCH   1   7
BRANCH   6  13
ATOM     13  N   UNL     1       0.134  -7.224 -45.436  1.00  0.00    -0.372 N 
ATOM     14  C   UNL     1      -0.541  -6.184 -44.646  1.00  0.00     0.143 C 
BRANCH  13  15
ATOM     15  C   UNL     1       1.433  -6.845 -46.033  1.00  0.00     0.131 C 
BRANCH  15  16
ATOM     16  C   UNL     1       2.015  -5.581 -45.361  1.00  0.00     0.105 C 
BRANCH  16  17
ATOM     17  N   UNL     1       3.399  -5.758 -44.857  1.00  0.00    -0.308 NA
ATOM     18  C   UNL     1       4.111  -6.731 -45.699  1.00  0.00     0.105 C 
ATOM     19  C   UNL     1       3.407  -6.218 -43.463  1.00  0.00     0.105 C 
ENDBRANCH  16  17
ENDBRANCH  15  16
ENDBRANCH  13  15
ENDBRANCH   6  13
BRANCH   3  20
ATOM     20  N   UNL     1       0.404 -12.575 -43.614  1.00  0.00    -0.321 N 
ATOM     21  H   UNL     1       1.118 -12.763 -42.922  1.00  0.00     0.170 HD
BRANCH  20  22
ATOM     22  C   UNL     1       0.140 -13.743 -44.330  1.00  0.00     0.227 A 
ATOM     23  N   UNL     1       0.394 -13.838 -45.646  1.00  0.00    -0.221 NA
ATOM     24  N   UNL     1      -0.319 -14.761 -43.588  1.00  0.00    -0.213 NA
ATOM     25  C   UNL     1       0.157 -15.029 -46.228  1.00  0.00     0.117 A 
ATOM     26  C   UNL     1      -0.553 -15.944 -44.203  1.00  0.00     0.078 A 
ATOM     27  C   UNL     1      -0.329 -16.120 -45.549  1.00  0.00     0.049 A 
BRANCH  26  28
ATOM     28  C   UNL     1      -1.059 -17.008 -43.335  1.00  0.00     0.026 A 
ATOM     29  C   UNL     1      -0.193 -17.854 -42.663  1.00  0.00     0.096 A 
ATOM     30  C   UNL     1      -2.393 -17.439 -42.994  1.00  0.00     0.009 A 
ATOM     31  N   UNL     1      -0.922 -18.730 -41.916  1.00  0.00    -0.350 N 
ATOM     32  C   UNL     1      -3.705 -17.049 -43.365  1.00  0.00     0.011 A 
ATOM     33  C   UNL     1      -2.269 -18.503 -42.086  1.00  0.00     0.048 A 
ATOM     34  C   UNL     1      -4.820 -17.687 -42.803  1.00  0.00     0.001 A 
ATOM     35  C   UNL     1      -3.380 -19.154 -41.522  1.00  0.00     0.027 A 
ATOM     36  C   UNL     1      -4.657 -18.721 -41.888  1.00  0.00     0.002 A 
ATOM     37  C   UNL     1      -0.351 -19.770 -41.087  1.00  0.00     0.149 C 
ENDBRANCH  26  28
ENDBRANCH  20  22
ENDBRANCH   3  20
BRANCH   4  38
ATOM     38  O   UNL     1       2.676 -11.160 -44.268  1.00  0.00    -0.494 OA
ATOM     39  C   UNL     1       3.187 -11.354 -45.593  1.00  0.00     0.278 C 
ENDBRANCH   4  38
TORSDOF 10
ENDMDL
MODEL 6
REMARK VINA RESULT:    -7.949      1.638      3.328
REMARK INTER + INTRA:         -14.339
REMARK INTER:                 -12.800
REMARK INTRA:                  -1.539
REMARK UNBOUND:                -1.743
REMARK SMILES C=CC(=O)Nc1cc(Nc2nccc(-c3cn(C)c4ccccc34)n2)c(OC)cc1N(C)CCN(C)C
REMARK SMILES IDX 6 1 7 2 8 3 26 4 29 5 30 6 5 7 3 8 4 9 2 11 1 12 31 13 32 14
REMARK SMILES IDX 33 15 34 16 35 17 36 18 37 19 9 20 10 22 11 23 25 24 12 25
REMARK SMILES IDX 14 26 13 27 15 28 16 29 24 30 17 31 23 32 19 33 22 34 20 35
REMARK SMILES IDX 21 36 18 37 27 38 28 39
REMARK H PARENT 5 10 9 21
ROOT
ATOM      1  C   UNL     1      -1.462  -8.982 -44.257  1.00  0.00     0.067 A 
ATOM      2  C   UNL     1      -1.264 -10.344 -43.946  1.00  0.00     0.058 A 
ATOM      3  C   UNL     1       0.014 -10.899 -43.876  1.00  0.00     0.086 A 
ATOM      4  C   UNL     1       1.098 -10.060 -44.172  1.00  0.00     0.144 A 
ATOM      5  C   UNL     1       0.929  -8.715 -44.501  1.00  0.00     0.076 A 
ATOM      6  C   UNL     1      -0.358  -8.157 -44.589  1.00  0.00     0.064 A 
ENDROOT
BRANCH   1   7
ATOM      7  N   UNL     1      -2.810  -8.545 -44.259  1.00  0.00    -0.321 N 
ATOM      8  C   UNL     1      -3.634  -8.403 -45.362  1.00  0.00     0.247 C 
ATOM      9  O   UNL     1      -3.339  -8.450 -46.549  1.00  0.00    -0.270 OA
ATOM     10  H   UNL     1      -3.120  -8.101 -43.403  1.00  0.00     0.170 HD
BRANCH   8  11
ATOM     11  C   UNL     1      -5.032  -8.072 -44.939  1.00  0.00     0.064 C 
ATOM     12  C   UNL     1      -5.352  -7.946 -43.646  1.00  0.00     0.014 C 
ENDBRANCH   8  11
ENDBRANCH   1   7
BRANCH   6  13
ATOM     13  N   UNL     1      -0.551  -6.872 -45.150  1.00  0.00    -0.372 N 
ATOM     14  C   UNL     1      -1.101  -5.866 -44.230  1.00  0.00     0.143 C 
BRANCH  13  15
ATOM     15  C   UNL     1       0.620  -6.451 -45.949  1.00  0.00     0.131 C 
BRANCH  15  16
ATOM     16  C   UNL     1       1.171  -5.091 -45.467  1.00  0.00     0.105 C 
BRANCH  16  17
ATOM     17  N   UNL     1       2.613  -5.122 -45.118  1.00  0.00    -0.308 NA
ATOM     18  C   UNL     1       3.320  -6.044 -46.020  1.00  0.00     0.105 C 
ATOM     19  C   UNL     1       2.817  -5.545 -43.727  1.00  0.00     0.105 C 
ENDBRANCH  16  17
ENDBRANCH  15  16
ENDBRANCH  13  15
ENDBRANCH   6  13
BRANCH   3  20
ATOM     20  N   UNL     1       0.247 -12.243 -43.554  1.00  0.00    -0.321 N 
ATOM     21  H   UNL     1       1.008 -12.392 -42.903  1.00  0.00     0.170 HD
BRANCH  20  22
ATOM     22  C   UNL     1       0.049 -13.404 -44.302  1.00  0.00     0.227 A 
ATOM     23  N   UNL     1       0.181 -13.414 -45.639  1.00  0.00    -0.221 NA
ATOM     24  N   UNL     1      -0.214 -14.499 -43.574  1.00  0.00    -0.213 NA
ATOM     25  C   UNL     1       0.025 -14.601 -46.257  1.00  0.00     0.117 A 
ATOM     26  C   UNL     1      -0.370 -15.675 -44.225  1.00  0.00     0.078 A 
ATOM     27  C   UNL     1      -0.262 -15.769 -45.592  1.00  0.00     0.049 A 
BRANCH  26  28
ATOM     28  C   UNL     1      -0.662 -16.826 -43.369  1.00  0.00     0.026 A 
ATOM     29  C   UNL     1      -1.903 -17.439 -43.393  1.00  0.00     0.096 A 
ATOM     30  C   UNL     1       0.121 -17.536 -42.386  1.00  0.00     0.009 A 
ATOM     31  N   UNL     1      -1.896 -18.487 -42.523  1.00  0.00    -0.350 N 
ATOM     32  C   UNL     1       1.425 -17.401 -41.846  1.00  0.00     0.011 A 
ATOM     33  C   UNL     1      -0.676 -18.582 -41.895  1.00  0.00     0.048 A 
ATOM     34  C   UNL     1       1.894 -18.313 -40.890  1.00  0.00     0.001 A 
ATOM     35  C   UNL     1      -0.217 -19.498 -40.931  1.00  0.00     0.027 A 
ATOM     36  C   UNL     1       1.085 -19.352 -40.445  1.00  0.00     0.002 A 
ATOM     37  C   UNL     1      -3.029 -19.353 -42.277  1.00  0.00     0.149 C 
ENDBRANCH  26  28
ENDBRANCH  20  22
ENDBRANCH   3  20
BRANCH   4  38
ATOM     38  O   UNL     1       2.367 -10.586 -44.149  1.00  0.00    -0.494 OA
ATOM     39  C   UNL     1       2.843 -10.784 -45.487  1.00  0.00     0.278 C 
ENDBRANCH   4  38
TORSDOF 10
ENDMDL
MODEL 7
REMARK VINA RESULT:    -7.910      2.134      3.414
REMARK INTER + INTRA:         -14.277
REMARK INTER:                 -12.523
REMARK INTRA:                  -1.754
REMARK UNBOUND:                -1.743
REMARK SMILES C=CC(=O)Nc1cc(Nc2nccc(-c3cn(C)c4ccccc34)n2)c(OC)cc1N(C)CCN(C)C
REMARK SMILES IDX 6 1 7 2 8 3 26 4 29 5 30 6 5 7 3 8 4 9 2 11 1 12 31 13 32 14
REMARK SMILES IDX 33 15 34 16 35 17 36 18 37 19 9 20 10 22 11 23 25 24 12 25
REMARK SMILES IDX 14 26 13 27 15 28 16 29 24 30 17 31 23 32 19 33 22 34 20 35
REMARK SMILES IDX 21 36 18 37 27 38 28 39
REMARK H PARENT 5 10 9 21
ROOT
ATOM      1  C   UNL     1      -1.060  -9.681 -43.810  1.00  0.00     0.067 A 
ATOM      2  C   UNL     1      -0.440 -10.948 -43.808  1.00  0.00     0.058 A 
ATOM      3  C   UNL     1       0.752 -11.179 -44.494  1.00  0.00     0.086 A 
ATOM      4  C   UNL     1       1.291 -10.113 -45.229  1.00  0.00     0.144 A 
ATOM      5  C   UNL     1       0.688  -8.855 -45.264  1.00  0.00     0.076 A 
ATOM      6  C   UNL     1      -0.522  -8.623 -44.587  1.00  0.00     0.064 A 
ENDROOT
BRANCH   1   7
ATOM      7  N   UNL     1      -2.246  -9.578 -43.042  1.00  0.00    -0.321 N 
ATOM      8  C   UNL     1      -3.486 -10.104 -43.359  1.00  0.00     0.247 C 
ATOM      9  O   UNL     1      -3.862 -10.600 -44.414  1.00  0.00    -0.270 OA
ATOM     10  H   UNL     1      -2.225  -8.882 -42.307  1.00  0.00     0.170 HD
BRANCH   8  11
ATOM     11  C   UNL     1      -4.445  -9.921 -42.223  1.00  0.00     0.064 C 
ATOM     12  C   UNL     1      -5.764  -9.855 -42.434  1.00  0.00     0.014 C 
ENDBRANCH   8  11
ENDBRANCH   1   7
BRANCH   6  13
ATOM     13  N   UNL     1      -1.258  -7.435 -44.809  1.00  0.00    -0.372 N 
ATOM     14  C   UNL     1      -0.468  -6.196 -44.778  1.00  0.00     0.143 C 
BRANCH  13  15
ATOM     15  C   UNL     1      -2.189  -7.584 -45.949  1.00  0.00     0.131 C 
BRANCH  15  16
ATOM     16  C   UNL     1      -3.387  -6.616 -45.827  1.00  0.00     0.105 C 
BRANCH  16  17
ATOM     17  N   UNL     1      -4.303  -6.940 -44.706  1.00  0.00    -0.308 NA
ATOM     18  C   UNL     1      -5.618  -7.327 -45.238  1.00  0.00     0.105 C 
ATOM     19  C   UNL     1      -4.459  -5.798 -43.796  1.00  0.00     0.105 C 
ENDBRANCH  16  17
ENDBRANCH  15  16
ENDBRANCH  13  15
ENDBRANCH   6  13
BRANCH   3  20
ATOM     20  N   UNL     1       1.403 -12.421 -44.500  1.00  0.00    -0.321 N 
ATOM     21  H   UNL     1       2.315 -12.413 -44.938  1.00  0.00     0.170 HD
BRANCH  20  22
ATOM     22  C   UNL     1       0.887 -13.717 -44.535  1.00  0.00     0.227 A 
ATOM     23  N   UNL     1      -0.024 -14.091 -45.450  1.00  0.00    -0.221 NA
ATOM     24  N   UNL     1       1.420 -14.554 -43.633  1.00  0.00    -0.213 NA
ATOM     25  C   UNL     1      -0.411 -15.381 -45.431  1.00  0.00     0.117 A 
ATOM     26  C   UNL     1       1.006 -15.842 -43.637  1.00  0.00     0.078 A 
ATOM     27  C   UNL     1       0.070 -16.303 -44.532  1.00  0.00     0.049 A 
BRANCH  26  28
ATOM     28  C   UNL     1       1.625 -16.697 -42.622  1.00  0.00     0.026 A 
ATOM     29  C   UNL     1       0.853 -17.479 -41.780  1.00  0.00     0.096 A 
ATOM     30  C   UNL     1       2.998 -16.926 -42.242  1.00  0.00     0.009 A 
ATOM     31  N   UNL     1       1.676 -18.185 -40.955  1.00  0.00    -0.350 N 
ATOM     32  C   UNL     1       4.256 -16.418 -42.653  1.00  0.00     0.011 A 
ATOM     33  C   UNL     1       2.993 -17.879 -41.212  1.00  0.00     0.048 A 
ATOM     34  C   UNL     1       5.438 -16.894 -42.070  1.00  0.00     0.001 A 
ATOM     35  C   UNL     1       4.172 -18.359 -40.615  1.00  0.00     0.027 A 
ATOM     36  C   UNL     1       5.395 -17.858 -41.069  1.00  0.00     0.002 A 
ATOM     37  C   UNL     1       1.219 -19.102 -39.932  1.00  0.00     0.149 C 
ENDBRANCH  26  28
ENDBRANCH  20  22
ENDBRANCH   3  20
BRANCH   4  38
ATOM     38  O   UNL     1       2.443 -10.320 -45.947  1.00  0.00    -0.494 OA
ATOM     39  C   UNL     1       3.558  -9.720 -45.274  1.00  0.00     0.278 C 
ENDBRANCH   4  38
TORSDOF 10
ENDMDL
MODEL 8
REMARK VINA RESULT:    -7.884      3.254      5.980
REMARK INTER + INTRA:         -14.236
REMARK INTER:                 -12.505
REMARK INTRA:                  -1.730
REMARK UNBOUND:                -1.743
REMARK SMILES C=CC(=O)Nc1cc(Nc2nccc(-c3cn(C)c4ccccc34)n2)c(OC)cc1N(C)CCN(C)C
REMARK SMILES IDX 6 1 7 2 8 3 26 4 29 5 30 6 5 7 3 8 4 9 2 11 1 12 31 13 32 14
REMARK SMILES IDX 33 15 34 16 35 17 36 18 37 19 9 20 10 22 11 23 25 24 12 25
REMARK SMILES IDX 14 26 13 27 15 28 16 29 24 30 17 31 23 32 19 33 22 34 20 35
REMARK SMILES IDX 21 36 18 37 27 38 28 39
REMARK H PARENT 5 10 9 21
ROOT
ATOM      1  C   UNL     1       4.496 -11.747 -45.274  1.00  0.00     0.067 A 
ATOM      2  C   UNL     1       3.352 -12.490 -44.912  1.00  0.00     0.058 A 
ATOM      3  C   UNL     1       2.082 -11.914 -44.896  1.00  0.00     0.086 A 
ATOM      4  C   UNL     1       1.988 -10.550 -45.211  1.00  0.00     0.144 A 
ATOM      5  C   UNL     1       3.104  -9.789 -45.554  1.00  0.00     0.076 A 
ATOM      6  C   UNL     1       4.388 -10.362 -45.554  1.00  0.00     0.064 A 
ENDROOT
BRANCH   1   7
ATOM      7  N   UNL     1       5.716 -12.467 -45.281  1.00  0.00    -0.321 N 
ATOM      8  C   UNL     1       6.553 -12.690 -44.202  1.00  0.00     0.247 C 
ATOM      9  O   UNL     1       6.518 -12.183 -43.087  1.00  0.00    -0.270 OA
ATOM     10  H   UNL     1       6.103 -12.649 -46.199  1.00  0.00     0.170 HD
BRANCH   8  11
ATOM     11  C   UNL     1       7.660 -13.626 -44.575  1.00  0.00     0.064 C 
ATOM     12  C   UNL     1       8.005 -14.643 -43.777  1.00  0.00     0.014 C 
ENDBRANCH   8  11
ENDBRANCH   1   7
BRANCH   6  13
ATOM     13  N   UNL     1       5.542  -9.549 -45.665  1.00  0.00    -0.372 N 
ATOM     14  C   UNL     1       5.581  -8.676 -46.847  1.00  0.00     0.143 C 
BRANCH  13  15
ATOM     15  C   UNL     1       5.876  -8.910 -44.374  1.00  0.00     0.131 C 
BRANCH  15  16
ATOM     16  C   UNL     1       6.017  -7.378 -44.524  1.00  0.00     0.105 C 
BRANCH  16  17
ATOM     17  N   UNL     1       5.199  -6.607 -43.555  1.00  0.00    -0.308 NA
ATOM     18  C   UNL     1       4.974  -7.413 -42.345  1.00  0.00     0.105 C 
ATOM     19  C   UNL     1       3.906  -6.222 -44.135  1.00  0.00     0.105 C 
ENDBRANCH  16  17
ENDBRANCH  15  16
ENDBRANCH  13  15
ENDBRANCH   6  13
BRANCH   3  20
ATOM     20  N   UNL     1       0.923 -12.627 -44.557  1.00  0.00    -0.321 N 
ATOM     21  H   UNL     1       0.698 -12.614 -43.571  1.00  0.00     0.170 HD
BRANCH  20  22
ATOM     22  C   UNL     1       0.342 -13.750 -45.146  1.00  0.00     0.227 A 
ATOM     23  N   UNL     1       0.255 -13.884 -46.480  1.00  0.00    -0.221 NA
ATOM     24  N   UNL     1      -0.053 -14.694 -44.279  1.00  0.00    -0.213 NA
ATOM     25  C   UNL     1      -0.271 -15.033 -46.944  1.00  0.00     0.117 A 
ATOM     26  C   UNL     1      -0.582 -15.835 -44.777  1.00  0.00     0.078 A 
ATOM     27  C   UNL     1      -0.717 -16.045 -46.129  1.00  0.00     0.049 A 
BRANCH  26  28
ATOM     28  C   UNL     1      -0.998 -16.818 -43.773  1.00  0.00     0.026 A 
ATOM     29  C   UNL     1      -0.064 -17.541 -43.052  1.00  0.00     0.096 A 
ATOM     30  C   UNL     1      -2.293 -17.269 -43.327  1.00  0.00     0.009 A 
ATOM     31  N   UNL     1      -0.716 -18.360 -42.181  1.00  0.00    -0.350 N 
ATOM     32  C   UNL     1      -3.637 -16.985 -43.678  1.00  0.00     0.011 A 
ATOM     33  C   UNL     1      -2.078 -18.217 -42.314  1.00  0.00     0.048 A 
ATOM     34  C   UNL     1      -4.694 -17.607 -42.999  1.00  0.00     0.001 A 
ATOM     35  C   UNL     1      -3.131 -18.852 -41.631  1.00  0.00     0.027 A 
ATOM     36  C   UNL     1      -4.443 -18.522 -41.984  1.00  0.00     0.002 A 
ATOM     37  C   UNL     1      -0.060 -19.273 -41.269  1.00  0.00     0.149 C 
ENDBRANCH  26  28
ENDBRANCH  20  22
ENDBRANCH   3  20
BRANCH   4  38
ATOM     38  O   UNL     1       0.756  -9.945 -45.167  1.00  0.00    -0.494 OA
ATOM     39  C   UNL     1       0.882  -8.605 -44.674  1.00  0.00     0.278 C 
ENDBRANCH   4  38
TORSDOF 10
ENDMDL
MODEL 9
REMARK VINA RESULT:    -7.854      4.324      8.118
REMARK INTER + INTRA:         -14.189
REMARK INTER:                 -12.533
REMARK INTRA:                  -1.656
REMARK UNBOUND:                -1.743
REMARK SMILES C=CC(=O)Nc1cc(Nc2nccc(-c3cn(C)c4ccccc34)n2)c(OC)cc1N(C)CCN(C)C
REMARK SMILES IDX 6 1 7 2 8 3 26 4 29 5 30 6 5 7 3 8 4 9 2 11 1 12 31 13 32 14
REMARK SMILES IDX 33 15 34 16 35 17 36 18 37 19 9 20 10 22 11 23 25 24 12 25
REMARK SMILES IDX 14 26 13 27 15 28 16 29 24 30 17 31 23 32 19 33 22 34 20 35
REMARK SMILES IDX 21 36 18 37 27 38 28 39
REMARK H PARENT 5 10 9 21
ROOT
ATOM      1  C   UNL     1       0.672 -10.821 -45.406  1.00  0.00     0.067 A 
ATOM      2  C   UNL     1       2.044 -10.540 -45.578  1.00  0.00     0.058 A 
ATOM      3  C   UNL     1       2.532  -9.234 -45.551  1.00  0.00     0.086 A 
ATOM      4  C   UNL     1       1.598  -8.200 -45.392  1.00  0.00     0.144 A 
ATOM      5  C   UNL     1       0.234  -8.448 -45.239  1.00  0.00     0.076 A 
ATOM      6  C   UNL     1      -0.263  -9.762 -45.282  1.00  0.00     0.064 A 
ENDROOT
BRANCH   1   7
ATOM      7  N   UNL     1       0.321 -12.193 -45.420  1.00  0.00    -0.321 N 
ATOM      8  C   UNL     1       0.325 -13.038 -46.515  1.00  0.00     0.247 C 
ATOM      9  O   UNL     1       0.454 -12.756 -47.700  1.00  0.00    -0.270 OA
ATOM     10  H   UNL     1      -0.174 -12.520 -44.599  1.00  0.00     0.170 HD
BRANCH   8  11
ATOM     11  C   UNL     1       0.047 -14.449 -46.097  1.00  0.00     0.064 C 
ATOM     12  C   UNL     1      -0.423 -15.349 -46.968  1.00  0.00     0.014 C 
ENDBRANCH   8  11
ENDBRANCH   1   7
BRANCH   6  13
ATOM     13  N   UNL     1      -1.654 -10.005 -45.368  1.00  0.00    -0.372 N 
ATOM     14  C   UNL     1      -2.302 -10.381 -44.103  1.00  0.00     0.143 C 
BRANCH  13  15
ATOM     15  C   UNL     1      -2.336  -8.960 -46.161  1.00  0.00     0.131 C 
BRANCH  15  16
ATOM     16  C   UNL     1      -3.548  -8.376 -45.400  1.00  0.00     0.105 C 
BRANCH  16  17
ATOM     17  N   UNL     1      -3.385  -6.949 -45.026  1.00  0.00    -0.308 NA
ATOM     18  C   UNL     1      -2.561  -6.265 -46.034  1.00  0.00     0.105 C 
ATOM     19  C   UNL     1      -2.760  -6.811 -43.705  1.00  0.00     0.105 C 
ENDBRANCH  16  17
ENDBRANCH  15  16
ENDBRANCH  13  15
ENDBRANCH   6  13
BRANCH   3  20
ATOM     20  N   UNL     1       3.890  -8.922 -45.702  1.00  0.00    -0.321 N 
ATOM     21  H   UNL     1       4.296  -9.233 -46.575  1.00  0.00     0.170 HD
BRANCH  20  22
ATOM     22  C   UNL     1       4.901  -8.778 -44.751  1.00  0.00     0.227 A 
ATOM     23  N   UNL     1       5.028  -7.658 -44.019  1.00  0.00    -0.221 NA
ATOM     24  N   UNL     1       5.677  -9.860 -44.593  1.00  0.00    -0.213 NA
ATOM     25  C   UNL     1       6.002  -7.646 -43.089  1.00  0.00     0.117 A 
ATOM     26  C   UNL     1       6.650  -9.815 -43.653  1.00  0.00     0.078 A 
ATOM     27  C   UNL     1       6.853  -8.703 -42.870  1.00  0.00     0.049 A 
BRANCH  26  28
ATOM     28  C   UNL     1       7.462 -11.028 -43.540  1.00  0.00     0.026 A 
ATOM     29  C   UNL     1       7.970 -11.655 -44.664  1.00  0.00     0.096 A 
ATOM     30  C   UNL     1       7.885 -11.817 -42.409  1.00  0.00     0.009 A 
ATOM     31  N   UNL     1       8.700 -12.738 -44.274  1.00  0.00    -0.350 N 
ATOM     32  C   UNL     1       7.676 -11.765 -41.007  1.00  0.00     0.011 A 
ATOM     33  C   UNL     1       8.677 -12.865 -42.904  1.00  0.00     0.048 A 
ATOM     34  C   UNL     1       8.279 -12.709 -40.165  1.00  0.00     0.001 A 
ATOM     35  C   UNL     1       9.281 -13.821 -42.068  1.00  0.00     0.027 A 
ATOM     36  C   UNL     1       9.077 -13.719 -40.690  1.00  0.00     0.002 A 
ATOM     37  C   UNL     1       9.373 -13.641 -45.183  1.00  0.00     0.149 C 
ENDBRANCH  26  28
ENDBRANCH  20  22
ENDBRANCH   3  20
BRANCH   4  38
ATOM     38  O   UNL     1       2.043  -6.900 -45.399  1.00  0.00    -0.494 OA
ATOM     39  C   UNL     1       1.151  -6.069 -44.645  1.00  0.00     0.278 C 
ENDBRANCH   4  38
TORSDOF 10
ENDMDL
MODEL 10
REMARK VINA RESULT:    -7.830      2.450      5.212
REMARK INTER + INTRA:         -14.150
REMARK INTER:                 -12.748
REMARK INTRA:                  -1.402
REMARK UNBOUND:                -1.743
REMARK SMILES C=CC(=O)Nc1cc(Nc2nccc(-c3cn(C)c4ccccc34)n2)c(OC)cc1N(C)CCN(C)C
REMARK SMILES IDX 6 1 7 2 8 3 26 4 29 5 30 6 5 7 3 8 4 9 2 11 1 12 31 13 32 14
REMARK SMILES IDX 33 15 34 16 35 17 36 18 37 19 9 20 10 22 11 23 25 24 12 25
REMARK SMILES IDX 14 26 13 27 15 28 16 29 24 30 17 31 23 32 19 33 22 34 20 35
REMARK SMILES IDX 21 36 18 37 27 38 28 39
REMARK H PARENT 5 10 9 21
ROOT
ATOM      1  C   UNL     1       2.844  -9.501 -45.297  1.00  0.00     0.067 A 
ATOM      2  C   UNL     1       2.462 -10.784 -44.849  1.00  0.00     0.058 A 
ATOM      3  C   UNL     1       1.204 -11.020 -44.296  1.00  0.00     0.086 A 
ATOM      4  C   UNL     1       0.344  -9.921 -44.158  1.00  0.00     0.144 A 
ATOM      5  C   UNL     1       0.703  -8.639 -44.574  1.00  0.00     0.076 A 
ATOM      6  C   UNL     1       1.977  -8.394 -45.116  1.00  0.00     0.064 A 
ENDROOT
BRANCH   1   7
ATOM      7  N   UNL     1       4.137  -9.413 -45.870  1.00  0.00    -0.321 N 
ATOM      8  C   UNL     1       5.270 -10.097 -45.467  1.00  0.00     0.247 C 
ATOM      9  O   UNL     1       5.443 -10.766 -44.456  1.00  0.00    -0.270 OA
ATOM     10  H   UNL     1       4.281  -8.624 -46.488  1.00  0.00     0.170 HD
BRANCH   8  11
ATOM     11  C   UNL     1       6.401  -9.856 -46.419  1.00  0.00     0.064 C 
ATOM     12  C   UNL     1       7.275  -8.863 -46.219  1.00  0.00     0.014 C 
ENDBRANCH   8  11
ENDBRANCH   1   7
BRANCH   6  13
ATOM     13  N   UNL     1       2.435  -7.070 -45.317  1.00  0.00    -0.372 N 
ATOM     14  C   UNL     1       2.066  -6.470 -46.607  1.00  0.00     0.143 C 
BRANCH  13  15
ATOM     15  C   UNL     1       2.200  -6.232 -44.121  1.00  0.00     0.131 C 
BRANCH  15  16
ATOM     16  C   UNL     1       3.516  -5.959 -43.358  1.00  0.00     0.105 C 
BRANCH  16  17
ATOM     17  N   UNL     1       3.855  -7.003 -42.360  1.00  0.00    -0.308 NA
ATOM     18  C   UNL     1       3.959  -6.395 -41.025  1.00  0.00     0.105 C 
ATOM     19  C   UNL     1       5.117  -7.673 -42.694  1.00  0.00     0.105 C 
ENDBRANCH  16  17
ENDBRANCH  15  16
ENDBRANCH  13  15
ENDBRANCH   6  13
BRANCH   3  20
ATOM     20  N   UNL     1       0.787 -12.284 -43.857  1.00  0.00    -0.321 N 
ATOM     21  H   UNL     1       1.218 -12.591 -42.995  1.00  0.00     0.170 HD
BRANCH  20  22
ATOM     22  C   UNL     1       0.354 -13.399 -44.576  1.00  0.00     0.227 A 
ATOM     23  N   UNL     1       0.380 -13.428 -45.919  1.00  0.00    -0.221 NA
ATOM     24  N   UNL     1      -0.020 -14.440 -43.819  1.00  0.00    -0.213 NA
ATOM     25  C   UNL     1      -0.005 -14.574 -46.511  1.00  0.00     0.117 A 
ATOM     26  C   UNL     1      -0.407 -15.576 -44.444  1.00  0.00     0.078 A 
ATOM     27  C   UNL     1      -0.420 -15.684 -45.815  1.00  0.00     0.049 A 
BRANCH  26  28
ATOM     28  C   UNL     1      -0.809 -16.669 -43.556  1.00  0.00     0.026 A 
ATOM     29  C   UNL     1       0.133 -17.407 -42.859  1.00  0.00     0.096 A 
ATOM     30  C   UNL     1      -2.094 -17.229 -43.216  1.00  0.00     0.009 A 
ATOM     31  N   UNL     1      -0.508 -18.338 -42.099  1.00  0.00    -0.350 N 
ATOM     32  C   UNL     1      -3.435 -16.985 -43.605  1.00  0.00     0.011 A 
ATOM     33  C   UNL     1      -1.869 -18.256 -42.285  1.00  0.00     0.048 A 
ATOM     34  C   UNL     1      -4.484 -17.724 -43.038  1.00  0.00     0.001 A 
ATOM     35  C   UNL     1      -2.913 -19.007 -41.715  1.00  0.00     0.027 A 
ATOM     36  C   UNL     1      -4.224 -18.716 -42.099  1.00  0.00     0.002 A 
ATOM     37  C   UNL     1       0.159 -19.296 -41.244  1.00  0.00     0.149 C 
ENDBRANCH  26  28
ENDBRANCH  20  22
ENDBRANCH   3  20
BRANCH   4  38
ATOM     38  O   UNL     1      -0.888 -10.113 -43.581  1.00  0.00    -0.494 OA
ATOM     39  C   UNL     1      -1.914 -10.065 -44.582  1.00  0.00     0.278 C 
ENDBRANCH   4  38
TORSDOF 10
ENDMDL
MODEL 11
REMARK VINA RESULT:    -7.699      3.167      9.168
REMARK INTER + INTRA:         -13.943
REMARK INTER:                 -12.631
REMARK INTRA:                  -1.312
REMARK UNBOUND:                -1.743
REMARK SMILES C=CC(=O)Nc1cc(Nc2nccc(-c3cn(C)c4ccccc34)n2)c(OC)cc1N(C)CCN(C)C
REMARK SMILES IDX 6 1 7 2 8 3 26 4 29 5 30 6 5 7 3 8 4 9 2 11 1 12 31 13 32 14
REMARK SMILES IDX 33 15 34 16 35 17 36 18 37 19 9 20 10 22 11 23 25 24 12 25
REMARK SMILES IDX 14 26 13 27 15 28 16 29 24 30 17 31 23 32 19 33 22 34 20 35
REMARK SMILES IDX 21 36 18 37 27 38 28 39
REMARK H PARENT 5 10 9 21
ROOT
ATOM      1  C   UNL     1       1.812 -14.436 -43.864  1.00  0.00     0.067 A 
ATOM      2  C   UNL     1       1.005 -13.279 -43.896  1.00  0.00     0.058 A 
ATOM      3  C   UNL     1       1.370 -12.154 -44.636  1.00  0.00     0.086 A 
ATOM      4  C   UNL     1       2.597 -12.198 -45.314  1.00  0.00     0.144 A 
ATOM      5  C   UNL     1       3.422 -13.322 -45.284  1.00  0.00     0.076 A 
ATOM      6  C   UNL     1       3.065 -14.451 -44.526  1.00  0.00     0.064 A 
ENDROOT
BRANCH   1   7
ATOM      7  N   UNL     1       1.303 -15.516 -43.102  1.00  0.00    -0.321 N 
ATOM      8  C   UNL     1       0.060 -16.110 -43.232  1.00  0.00     0.247 C 
ATOM      9  O   UNL     1      -0.904 -15.732 -43.887  1.00  0.00    -0.270 OA
ATOM     10  H   UNL     1       1.817 -15.726 -42.255  1.00  0.00     0.170 HD
BRANCH   8  11
ATOM     11  C   UNL     1      -0.044 -17.320 -42.356  1.00  0.00     0.064 C 
ATOM     12  C   UNL     1      -0.947 -18.276 -42.602  1.00  0.00     0.014 C 
ENDBRANCH   8  11
ENDBRANCH   1   7
BRANCH   6  13
ATOM     13  N   UNL     1       3.997 -15.491 -44.297  1.00  0.00    -0.372 N 
ATOM     14  C   UNL     1       4.497 -16.160 -45.507  1.00  0.00     0.143 C 
BRANCH  13  15
ATOM     15  C   UNL     1       5.021 -15.090 -43.308  1.00  0.00     0.131 C 
BRANCH  15  16
ATOM     16  C   UNL     1       6.446 -15.196 -43.896  1.00  0.00     0.105 C 
BRANCH  16  17
ATOM     17  N   UNL     1       7.284 -13.998 -43.646  1.00  0.00    -0.308 NA
ATOM     18  C   UNL     1       7.496 -13.271 -44.907  1.00  0.00     0.105 C 
ATOM     19  C   UNL     1       8.583 -14.365 -43.067  1.00  0.00     0.105 C 
ENDBRANCH  16  17
ENDBRANCH  15  16
ENDBRANCH  13  15
ENDBRANCH   6  13
BRANCH   3  20
ATOM     20  N   UNL     1       0.585 -10.995 -44.701  1.00  0.00    -0.321 N 
ATOM     21  H   UNL     1       0.520 -10.483 -43.831  1.00  0.00     0.170 HD
BRANCH  20  22
ATOM     22  C   UNL     1      -0.521 -10.690 -45.496  1.00  0.00     0.227 A 
ATOM     23  N   UNL     1      -0.904 -11.484 -46.510  1.00  0.00    -0.221 NA
ATOM     24  N   UNL     1      -1.192  -9.591 -45.121  1.00  0.00    -0.213 NA
ATOM     25  C   UNL     1      -2.019 -11.127 -47.176  1.00  0.00     0.117 A 
ATOM     26  C   UNL     1      -2.305  -9.256 -45.813  1.00  0.00     0.078 A 
ATOM     27  C   UNL     1      -2.757 -10.009 -46.872  1.00  0.00     0.049 A 
BRANCH  26  28
ATOM     28  C   UNL     1      -2.982  -8.042 -45.354  1.00  0.00     0.026 A 
ATOM     29  C   UNL     1      -2.663  -6.803 -45.883  1.00  0.00     0.096 A 
ATOM     30  C   UNL     1      -4.000  -7.808 -44.359  1.00  0.00     0.009 A 
ATOM     31  N   UNL     1      -3.451  -5.857 -45.298  1.00  0.00    -0.350 N 
ATOM     32  C   UNL     1      -4.712  -8.614 -43.436  1.00  0.00     0.011 A 
ATOM     33  C   UNL     1      -4.285  -6.433 -44.368  1.00  0.00     0.048 A 
ATOM     34  C   UNL     1      -5.687  -8.047 -42.603  1.00  0.00     0.001 A 
ATOM     35  C   UNL     1      -5.256  -5.853 -43.533  1.00  0.00     0.027 A 
ATOM     36  C   UNL     1      -5.960  -6.685 -42.658  1.00  0.00     0.002 A 
ATOM     37  C   UNL     1      -3.388  -4.442 -45.598  1.00  0.00     0.149 C 
ENDBRANCH  26  28
ENDBRANCH  20  22
ENDBRANCH   3  20
BRANCH   4  38
ATOM     38  O   UNL     1       3.002 -11.092 -46.020  1.00  0.00    -0.494 OA
ATOM     39  C   UNL     1       4.304 -10.679 -45.585  1.00  0.00     0.278 C 
ENDBRANCH   4  38
TORSDOF 10
ENDMDL
MODEL 12
REMARK VINA RESULT:    -7.684      6.148     11.048
REMARK INTER + INTRA:         -13.920
REMARK INTER:                 -12.190
REMARK INTRA:                  -1.730
REMARK UNBOUND:                -1.743
REMARK SMILES C=CC(=O)Nc1cc(Nc2nccc(-c3cn(C)c4ccccc34)n2)c(OC)cc1N(C)CCN(C)C
REMARK SMILES IDX 6 1 7 2 8 3 26 4 29 5 30 6 5 7 3 8 4 9 2 11 1 12 31 13 32 14
REMARK SMILES IDX 33 15 34 16 35 17 36 18 37 19 9 20 10 22 11 23 25 24 12 25
REMARK SMILES IDX 14 26 13 27 15 28 16 29 24 30 17 31 23 32 19 33 22 34 20 35
REMARK SMILES IDX 21 36 18 37 27 38 28 39
REMARK H PARENT 5 10 9 21
ROOT
ATOM      1  C   UNL     1       7.322 -13.687 -41.771  1.00  0.00     0.067 A 
ATOM      2  C   UNL     1       7.685 -12.492 -42.428  1.00  0.00     0.058 A 
ATOM      3  C   UNL     1       7.973 -12.468 -43.792  1.00  0.00     0.086 A 
ATOM      4  C   UNL     1       7.934 -13.688 -44.482  1.00  0.00     0.144 A 
ATOM      5  C   UNL     1       7.598 -14.886 -43.853  1.00  0.00     0.076 A 
ATOM      6  C   UNL     1       7.322 -14.918 -42.475  1.00  0.00     0.064 A 
ENDROOT
BRANCH   1   7
ATOM      7  N   UNL     1       7.021 -13.561 -40.392  1.00  0.00    -0.321 N 
ATOM      8  C   UNL     1       7.909 -13.258 -39.375  1.00  0.00     0.247 C 
ATOM      9  O   UNL     1       9.132 -13.212 -39.414  1.00  0.00    -0.270 OA
ATOM     10  H   UNL     1       6.122 -13.931 -40.112  1.00  0.00     0.170 HD
BRANCH   8  11
ATOM     11  C   UNL     1       7.183 -13.057 -38.081  1.00  0.00     0.064 C 
ATOM     12  C   UNL     1       7.221 -13.982 -37.114  1.00  0.00     0.014 C 
ENDBRANCH   8  11
ENDBRANCH   1   7
BRANCH   6  13
ATOM     13  N   UNL     1       7.217 -16.150 -41.787  1.00  0.00    -0.372 N 
ATOM     14  C   UNL     1       5.843 -16.591 -41.503  1.00  0.00     0.143 C 
BRANCH  13  15
ATOM     15  C   UNL     1       8.119 -17.169 -42.365  1.00  0.00     0.131 C 
BRANCH  15  16
ATOM     16  C   UNL     1       7.336 -18.419 -42.828  1.00  0.00     0.105 C 
BRANCH  16  17
ATOM     17  N   UNL     1       7.342 -18.615 -44.298  1.00  0.00    -0.308 NA
ATOM     18  C   UNL     1       6.061 -18.163 -44.863  1.00  0.00     0.105 C 
ATOM     19  C   UNL     1       7.564 -20.023 -44.649  1.00  0.00     0.105 C 
ENDBRANCH  16  17
ENDBRANCH  15  16
ENDBRANCH  13  15
ENDBRANCH   6  13
BRANCH   3  20
ATOM     20  N   UNL     1       8.321 -11.296 -44.479  1.00  0.00    -0.321 N 
ATOM     21  H   UNL     1       9.245 -10.945 -44.266  1.00  0.00     0.170 HD
BRANCH  20  22
ATOM     22  C   UNL     1       7.528 -10.247 -44.947  1.00  0.00     0.227 A 
ATOM     23  N   UNL     1       8.066  -9.104 -45.402  1.00  0.00    -0.221 NA
ATOM     24  N   UNL     1       6.213 -10.506 -44.962  1.00  0.00    -0.213 NA
ATOM     25  C   UNL     1       7.213  -8.179 -45.885  1.00  0.00     0.117 A 
ATOM     26  C   UNL     1       5.381  -9.555 -45.448  1.00  0.00     0.078 A 
ATOM     27  C   UNL     1       5.851  -8.353 -45.922  1.00  0.00     0.049 A 
BRANCH  26  28
ATOM     28  C   UNL     1       3.959  -9.902 -45.428  1.00  0.00     0.026 A 
ATOM     29  C   UNL     1       2.990  -8.934 -45.229  1.00  0.00     0.096 A 
ATOM     30  C   UNL     1       3.258 -11.155 -45.562  1.00  0.00     0.009 A 
ATOM     31  N   UNL     1       1.762  -9.521 -45.277  1.00  0.00    -0.350 N 
ATOM     32  C   UNL     1       3.637 -12.511 -45.731  1.00  0.00     0.011 A 
ATOM     33  C   UNL     1       1.884 -10.875 -45.486  1.00  0.00     0.048 A 
ATOM     34  C   UNL     1       2.662 -13.510 -45.857  1.00  0.00     0.001 A 
ATOM     35  C   UNL     1       0.897 -11.870 -45.604  1.00  0.00     0.027 A 
ATOM     36  C   UNL     1       1.310 -13.191 -45.801  1.00  0.00     0.002 A 
ATOM     37  C   UNL     1       0.511  -8.815 -45.100  1.00  0.00     0.149 C 
ENDBRANCH  26  28
ENDBRANCH  20  22
ENDBRANCH   3  20
BRANCH   4  38
ATOM     38  O   UNL     1       8.251 -13.703 -45.818  1.00  0.00    -0.494 OA
ATOM     39  C   UNL     1       9.375 -14.563 -46.050  1.00  0.00     0.278 C 
ENDBRANCH   4  38
TORSDOF 10
ENDMDL
MODEL 13
REMARK VINA RESULT:    -7.615      5.688      9.286
REMARK INTER + INTRA:         -13.811
REMARK INTER:                 -11.624
REMARK INTRA:                  -2.187
REMARK UNBOUND:                -1.743
REMARK SMILES C=CC(=O)Nc1cc(Nc2nccc(-c3cn(C)c4ccccc34)n2)c(OC)cc1N(C)CCN(C)C
REMARK SMILES IDX 6 1 7 2 8 3 26 4 29 5 30 6 5 7 3 8 4 9 2 11 1 12 31 13 32 14
REMARK SMILES IDX 33 15 34 16 35 17 36 18 37 19 9 20 10 22 11 23 25 24 12 25
REMARK SMILES IDX 14 26 13 27 15 28 16 29 24 30 17 31 23 32 19 33 22 34 20 35
REMARK SMILES IDX 21 36 18 37 27 38 28 39
REMARK H PARENT 5 10 9 21
ROOT
ATOM      1  C   UNL     1       6.707 -14.832 -42.327  1.00  0.00     0.067 A 
ATOM      2  C   UNL     1       5.501 -14.424 -42.934  1.00  0.00     0.058 A 
ATOM      3  C   UNL     1       5.085 -14.948 -44.158  1.00  0.00     0.086 A 
ATOM      4  C   UNL     1       5.937 -15.867 -44.789  1.00  0.00     0.144 A 
ATOM      5  C   UNL     1       7.143 -16.273 -44.220  1.00  0.00     0.076 A 
ATOM      6  C   UNL     1       7.573 -15.734 -42.995  1.00  0.00     0.064 A 
ENDROOT
BRANCH   1   7
ATOM      7  N   UNL     1       6.988 -14.245 -41.068  1.00  0.00    -0.321 N 
ATOM      8  C   UNL     1       7.528 -12.992 -40.840  1.00  0.00     0.247 C 
ATOM      9  O   UNL     1       8.028 -12.215 -41.644  1.00  0.00    -0.270 OA
ATOM     10  H   UNL     1       6.987 -14.886 -40.284  1.00  0.00     0.170 HD
BRANCH   8  11
ATOM     11  C   UNL     1       7.524 -12.672 -39.377  1.00  0.00     0.064 C 
ATOM     12  C   UNL     1       7.589 -13.640 -38.457  1.00  0.00     0.014 C 
ENDBRANCH   8  11
ENDBRANCH   1   7
BRANCH   6  13
ATOM     13  N   UNL     1       8.892 -15.956 -42.531  1.00  0.00    -0.372 N 
ATOM     14  C   UNL     1       9.094 -17.215 -41.800  1.00  0.00     0.143 C 
BRANCH  13  15
ATOM     15  C   UNL     1       9.890 -15.645 -43.577  1.00  0.00     0.131 C 
BRANCH  15  16
ATOM     16  C   UNL     1      10.158 -14.125 -43.667  1.00  0.00     0.105 C 
BRANCH  16  17
ATOM     17  N   UNL     1       9.879 -13.549 -45.005  1.00  0.00    -0.308 NA
ATOM     18  C   UNL     1       8.554 -12.911 -45.003  1.00  0.00     0.105 C 
ATOM     19  C   UNL     1       9.926 -14.579 -46.051  1.00  0.00     0.105 C 
ENDBRANCH  16  17
ENDBRANCH  15  16
ENDBRANCH  13  15
ENDBRANCH   6  13
BRANCH   3  20
ATOM     20  N   UNL     1       3.886 -14.576 -44.781  1.00  0.00    -0.321 N 
ATOM     21  H   UNL     1       3.994 -13.903 -45.528  1.00  0.00     0.170 HD
BRANCH  20  22
ATOM     22  C   UNL     1       2.586 -14.501 -44.279  1.00  0.00     0.227 A 
ATOM     23  N   UNL     1       1.830 -13.402 -44.438  1.00  0.00    -0.221 NA
ATOM     24  N   UNL     1       2.148 -15.625 -43.694  1.00  0.00    -0.213 NA
ATOM     25  C   UNL     1       0.570 -13.456 -43.965  1.00  0.00     0.117 A 
ATOM     26  C   UNL     1       0.879 -15.646 -43.224  1.00  0.00     0.078 A 
ATOM     27  C   UNL     1       0.044 -14.559 -43.337  1.00  0.00     0.049 A 
BRANCH  26  28
ATOM     28  C   UNL     1       0.470 -16.901 -42.592  1.00  0.00     0.026 A 
ATOM     29  C   UNL     1      -0.812 -17.399 -42.755  1.00  0.00     0.096 A 
ATOM     30  C   UNL     1       1.159 -17.831 -41.731  1.00  0.00     0.009 A 
ATOM     31  N   UNL     1      -0.916 -18.580 -42.083  1.00  0.00    -0.350 N 
ATOM     32  C   UNL     1       2.448 -17.897 -41.144  1.00  0.00     0.011 A 
ATOM     33  C   UNL     1       0.269 -18.880 -41.452  1.00  0.00     0.048 A 
ATOM     34  C   UNL     1       2.811 -18.996 -40.352  1.00  0.00     0.001 A 
ATOM     35  C   UNL     1       0.621 -19.984 -40.654  1.00  0.00     0.027 A 
ATOM     36  C   UNL     1       1.911 -20.029 -40.118  1.00  0.00     0.002 A 
ATOM     37  C   UNL     1      -2.119 -19.382 -42.022  1.00  0.00     0.149 C 
ENDBRANCH  26  28
ENDBRANCH  20  22
ENDBRANCH   3  20
BRANCH   4  38
ATOM     38  O   UNL     1       5.574 -16.372 -46.013  1.00  0.00    -0.494 OA
ATOM     39  C   UNL     1       5.640 -17.804 -45.996  1.00  0.00     0.278 C 
ENDBRANCH   4  38
TORSDOF 10
ENDMDL
MODEL 14
REMARK VINA RESULT:    -7.570      6.180     10.460
REMARK INTER + INTRA:         -13.738
REMARK INTER:                 -12.010
REMARK INTRA:                  -1.728
REMARK UNBOUND:                -1.743
REMARK SMILES C=CC(=O)Nc1cc(Nc2nccc(-c3cn(C)c4ccccc34)n2)c(OC)cc1N(C)CCN(C)C
REMARK SMILES IDX 6 1 7 2 8 3 26 4 29 5 30 6 5 7 3 8 4 9 2 11 1 12 31 13 32 14
REMARK SMILES IDX 33 15 34 16 35 17 36 18 37 19 9 20 10 22 11 23 25 24 12 25
REMARK SMILES IDX 14 26 13 27 15 28 16 29 24 30 17 31 23 32 19 33 22 34 20 35
REMARK SMILES IDX 21 36 18 37 27 38 28 39
REMARK H PARENT 5 10 9 21
ROOT
ATOM      1  C   UNL     1       5.877 -16.690 -42.792  1.00  0.00     0.067 A 
ATOM      2  C   UNL     1       4.546 -16.303 -42.527  1.00  0.00     0.058 A 
ATOM      3  C   UNL     1       3.598 -17.217 -42.068  1.00  0.00     0.086 A 
ATOM      4  C   UNL     1       4.005 -18.551 -41.921  1.00  0.00     0.144 A 
ATOM      5  C   UNL     1       5.309 -18.963 -42.193  1.00  0.00     0.076 A 
ATOM      6  C   UNL     1       6.263 -18.049 -42.672  1.00  0.00     0.064 A 
ENDROOT
BRANCH   1   7
ATOM      7  N   UNL     1       6.742 -15.652 -43.219  1.00  0.00    -0.321 N 
ATOM      8  C   UNL     1       7.618 -14.926 -42.431  1.00  0.00     0.247 C 
ATOM      9  O   UNL     1       7.706 -14.898 -41.209  1.00  0.00    -0.270 OA
ATOM     10  H   UNL     1       6.543 -15.276 -44.138  1.00  0.00     0.170 HD
BRANCH   8  11
ATOM     11  C   UNL     1       8.472 -14.031 -43.274  1.00  0.00     0.064 C 
ATOM     12  C   UNL     1       8.308 -13.967 -44.601  1.00  0.00     0.014 C 
ENDBRANCH   8  11
ENDBRANCH   1   7
BRANCH   6  13
ATOM     13  N   UNL     1       7.507 -18.499 -43.175  1.00  0.00    -0.372 N 
ATOM     14  C   UNL     1       8.578 -18.619 -42.175  1.00  0.00     0.143 C 
BRANCH  13  15
ATOM     15  C   UNL     1       7.335 -19.653 -44.084  1.00  0.00     0.131 C 
BRANCH  15  16
ATOM     16  C   UNL     1       8.586 -20.561 -44.085  1.00  0.00     0.105 C 
BRANCH  16  17
ATOM     17  N   UNL     1       8.307 -21.960 -43.679  1.00  0.00    -0.308 NA
ATOM     18  C   UNL     1       6.892 -22.092 -43.300  1.00  0.00     0.105 C 
ATOM     19  C   UNL     1       9.156 -22.370 -42.554  1.00  0.00     0.105 C 
ENDBRANCH  16  17
ENDBRANCH  15  16
ENDBRANCH  13  15
ENDBRANCH   6  13
BRANCH   3  20
ATOM     20  N   UNL     1       2.272 -16.863 -41.780  1.00  0.00    -0.321 N 
ATOM     21  H   UNL     1       1.941 -17.180 -40.878  1.00  0.00     0.170 HD
BRANCH  20  22
ATOM     22  C   UNL     1       1.181 -16.664 -42.626  1.00  0.00     0.227 A 
ATOM     23  N   UNL     1       1.267 -15.889 -43.721  1.00  0.00    -0.221 NA
ATOM     24  N   UNL     1       0.081 -17.354 -42.291  1.00  0.00    -0.213 NA
ATOM     25  C   UNL     1       0.171 -15.812 -44.500  1.00  0.00     0.117 A 
ATOM     26  C   UNL     1      -1.005 -17.252 -43.091  1.00  0.00     0.078 A 
ATOM     27  C   UNL     1      -1.003 -16.471 -44.223  1.00  0.00     0.049 A 
BRANCH  26  28
ATOM     28  C   UNL     1      -2.171 -18.026 -42.661  1.00  0.00     0.026 A 
ATOM     29  C   UNL     1      -3.434 -17.461 -42.634  1.00  0.00     0.096 A 
ATOM     30  C   UNL     1      -2.323 -19.381 -42.191  1.00  0.00     0.009 A 
ATOM     31  N   UNL     1      -4.330 -18.400 -42.219  1.00  0.00    -0.350 N 
ATOM     32  C   UNL     1      -1.445 -20.465 -41.933  1.00  0.00     0.011 A 
ATOM     33  C   UNL     1      -3.690 -19.587 -41.946  1.00  0.00     0.048 A 
ATOM     34  C   UNL     1      -1.949 -21.696 -41.491  1.00  0.00     0.001 A 
ATOM     35  C   UNL     1      -4.205 -20.816 -41.496  1.00  0.00     0.027 A 
ATOM     36  C   UNL     1      -3.313 -21.870 -41.283  1.00  0.00     0.002 A 
ATOM     37  C   UNL     1      -5.748 -18.163 -42.060  1.00  0.00     0.149 C 
ENDBRANCH  26  28
ENDBRANCH  20  22
ENDBRANCH   3  20
BRANCH   4  38
ATOM     38  O   UNL     1       3.084 -19.482 -41.507  1.00  0.00    -0.494 OA
ATOM     39  C   UNL     1       3.537 -20.802 -41.831  1.00  0.00     0.278 C 
ENDBRANCH   4  38
TORSDOF 10
ENDMDL
MODEL 15
REMARK VINA RESULT:    -7.559      5.433      9.440
REMARK INTER + INTRA:         -13.721
REMARK INTER:                 -11.233
REMARK INTRA:                  -2.488
REMARK UNBOUND:                -1.743
REMARK SMILES C=CC(=O)Nc1cc(Nc2nccc(-c3cn(C)c4ccccc34)n2)c(OC)cc1N(C)CCN(C)C
REMARK SMILES IDX 6 1 7 2 8 3 26 4 29 5 30 6 5 7 3 8 4 9 2 11 1 12 31 13 32 14
REMARK SMILES IDX 33 15 34 16 35 17 36 18 37 19 9 20 10 22 11 23 25 24 12 25
REMARK SMILES IDX 14 26 13 27 15 28 16 29 24 30 17 31 23 32 19 33 22 34 20 35
REMARK SMILES IDX 21 36 18 37 27 38 28 39
REMARK H PARENT 5 10 9 21
ROOT
ATOM      1  C   UNL     1       6.408 -17.158 -45.247  1.00  0.00     0.067 A 
ATOM      2  C   UNL     1       5.093 -16.682 -45.441  1.00  0.00     0.058 A 
ATOM      3  C   UNL     1       4.829 -15.328 -45.643  1.00  0.00     0.086 A 
ATOM      4  C   UNL     1       5.918 -14.445 -45.599  1.00  0.00     0.144 A 
ATOM      5  C   UNL     1       7.224 -14.886 -45.390  1.00  0.00     0.076 A 
ATOM      6  C   UNL     1       7.492 -16.248 -45.170  1.00  0.00     0.064 A 
ENDROOT
BRANCH   1   7
ATOM      7  N   UNL     1       6.534 -18.561 -45.090  1.00  0.00    -0.321 N 
ATOM      8  C   UNL     1       6.118 -19.314 -44.007  1.00  0.00     0.247 C 
ATOM      9  O   UNL     1       5.727 -18.931 -42.912  1.00  0.00    -0.270 OA
ATOM     10  H   UNL     1       7.171 -19.011 -45.736  1.00  0.00     0.170 HD
BRANCH   8  11
ATOM     11  C   UNL     1       6.282 -20.777 -44.285  1.00  0.00     0.064 C 
ATOM     12  C   UNL     1       6.198 -21.681 -43.303  1.00  0.00     0.014 C 
ENDBRANCH   8  11
ENDBRANCH   1   7
BRANCH   6  13
ATOM     13  N   UNL     1       8.767 -16.671 -44.723  1.00  0.00    -0.372 N 
ATOM     14  C   UNL     1       9.808 -16.719 -45.760  1.00  0.00     0.143 C 
BRANCH  13  15
ATOM     15  C   UNL     1       9.142 -16.006 -43.457  1.00  0.00     0.131 C 
BRANCH  15  16
ATOM     16  C   UNL     1       8.352 -16.585 -42.261  1.00  0.00     0.105 C 
BRANCH  16  17
ATOM     17  N   UNL     1       7.589 -15.565 -41.501  1.00  0.00    -0.308 NA
ATOM     18  C   UNL     1       6.165 -15.643 -41.861  1.00  0.00     0.105 C 
ATOM     19  C   UNL     1       8.090 -14.212 -41.771  1.00  0.00     0.105 C 
ENDBRANCH  16  17
ENDBRANCH  15  16
ENDBRANCH  13  15
ENDBRANCH   6  13
BRANCH   3  20
ATOM     20  N   UNL     1       3.539 -14.824 -45.854  1.00  0.00    -0.321 N 
ATOM     21  H   UNL     1       3.452 -14.221 -46.662  1.00  0.00     0.170 HD
BRANCH  20  22
ATOM     22  C   UNL     1       2.519 -14.527 -44.949  1.00  0.00     0.227 A 
ATOM     23  N   UNL     1       2.060 -13.275 -44.786  1.00  0.00    -0.221 NA
ATOM     24  N   UNL     1       2.005 -15.593 -44.318  1.00  0.00    -0.213 NA
ATOM     25  C   UNL     1       1.034 -13.109 -43.929  1.00  0.00     0.117 A 
ATOM     26  C   UNL     1       0.979 -15.392 -43.459  1.00  0.00     0.078 A 
ATOM     27  C   UNL     1       0.459 -14.140 -43.228  1.00  0.00     0.049 A 
BRANCH  26  28
ATOM     28  C   UNL     1       0.473 -16.598 -42.801  1.00  0.00     0.026 A 
ATOM     29  C   UNL     1      -0.846 -16.992 -42.948  1.00  0.00     0.096 A 
ATOM     30  C   UNL     1       1.090 -17.566 -41.927  1.00  0.00     0.009 A 
ATOM     31  N   UNL     1      -1.042 -18.148 -42.253  1.00  0.00    -0.350 N 
ATOM     32  C   UNL     1       2.372 -17.726 -41.345  1.00  0.00     0.011 A 
ATOM     33  C   UNL     1       0.118 -18.533 -41.623  1.00  0.00     0.048 A 
ATOM     34  C   UNL     1       2.650 -18.836 -40.534  1.00  0.00     0.001 A 
ATOM     35  C   UNL     1       0.384 -19.646 -40.806  1.00  0.00     0.027 A 
ATOM     36  C   UNL     1       1.669 -19.787 -40.276  1.00  0.00     0.002 A 
ATOM     37  C   UNL     1      -2.307 -18.847 -42.170  1.00  0.00     0.149 C 
ENDBRANCH  26  28
ENDBRANCH  20  22
ENDBRANCH   3  20
BRANCH   4  38
ATOM     38  O   UNL     1       5.686 -13.100 -45.756  1.00  0.00    -0.494 OA
ATOM     39  C   UNL     1       6.210 -12.375 -44.636  1.00  0.00     0.278 C 
ENDBRANCH   4  38
TORSDOF 10
ENDMDL
MODEL 16
REMARK VINA RESULT:    -7.553      2.523      8.497
REMARK INTER + INTRA:         -13.711
REMARK INTER:                 -12.453
REMARK INTRA:                  -1.258
REMARK UNBOUND:                -1.743
REMARK SMILES C=CC(=O)Nc1cc(Nc2nccc(-c3cn(C)c4ccccc34)n2)c(OC)cc1N(C)CCN(C)C
REMARK SMILES IDX 6 1 7 2 8 3 26 4 29 5 30 6 5 7 3 8 4 9 2 11 1 12 31 13 32 14
REMARK SMILES IDX 33 15 34 16 35 17 36 18 37 19 9 20 10 22 11 23 25 24 12 25
REMARK SMILES IDX 14 26 13 27 15 28 16 29 24 30 17 31 23 32 19 33 22 34 20 35
REMARK SMILES IDX 21 36 18 37 27 38 28 39
REMARK H PARENT 5 10 9 21
ROOT
ATOM      1  C   UNL     1       1.202 -13.799 -44.220  1.00  0.00     0.067 A 
ATOM      2  C   UNL     1       1.054 -12.505 -43.677  1.00  0.00     0.058 A 
ATOM      3  C   UNL     1       1.630 -11.388 -44.283  1.00  0.00     0.086 A 
ATOM      4  C   UNL     1       2.405 -11.605 -45.431  1.00  0.00     0.144 A 
ATOM      5  C   UNL     1       2.583 -12.876 -45.978  1.00  0.00     0.076 A 
ATOM      6  C   UNL     1       2.018 -14.005 -45.361  1.00  0.00     0.064 A 
ENDROOT
BRANCH   1   7
ATOM      7  N   UNL     1       0.534 -14.836 -43.522  1.00  0.00    -0.321 N 
ATOM      8  C   UNL     1      -0.441 -15.678 -44.026  1.00  0.00     0.247 C 
ATOM      9  O   UNL     1      -1.046 -15.602 -45.088  1.00  0.00    -0.270 OA
ATOM     10  H   UNL     1       0.634 -14.811 -42.515  1.00  0.00     0.170 HD
BRANCH   8  11
ATOM     11  C   UNL     1      -0.786 -16.743 -43.031  1.00  0.00     0.064 C 
ATOM     12  C   UNL     1      -2.014 -17.272 -42.980  1.00  0.00     0.014 C 
ENDBRANCH   8  11
ENDBRANCH   1   7
BRANCH   6  13
ATOM     13  N   UNL     1       2.388 -15.310 -45.765  1.00  0.00    -0.372 N 
ATOM     14  C   UNL     1       1.700 -15.811 -46.964  1.00  0.00     0.143 C 
BRANCH  13  15
ATOM     15  C   UNL     1       3.856 -15.487 -45.737  1.00  0.00     0.131 C 
BRANCH  15  16
ATOM     16  C   UNL     1       4.337 -15.985 -44.355  1.00  0.00     0.105 C 
BRANCH  16  17
ATOM     17  N   UNL     1       5.603 -15.357 -43.904  1.00  0.00    -0.308 NA
ATOM     18  C   UNL     1       5.304 -14.142 -43.131  1.00  0.00     0.105 C 
ATOM     19  C   UNL     1       6.466 -15.015 -45.041  1.00  0.00     0.105 C 
ENDBRANCH  16  17
ENDBRANCH  15  16
ENDBRANCH  13  15
ENDBRANCH   6  13
BRANCH   3  20
ATOM     20  N   UNL     1       1.489 -10.088 -43.779  1.00  0.00    -0.321 N 
ATOM     21  H   UNL     1       1.497 -10.027 -42.769  1.00  0.00     0.170 HD
BRANCH  20  22
ATOM     22  C   UNL     1       0.821  -8.978 -44.300  1.00  0.00     0.227 A 
ATOM     23  N   UNL     1       1.427  -8.116 -45.133  1.00  0.00    -0.221 NA
ATOM     24  N   UNL     1      -0.471  -8.891 -43.953  1.00  0.00    -0.213 NA
ATOM     25  C   UNL     1       0.675  -7.112 -45.624  1.00  0.00     0.117 A 
ATOM     26  C   UNL     1      -1.199  -7.869 -44.459  1.00  0.00     0.078 A 
ATOM     27  C   UNL     1      -0.651  -6.937 -45.309  1.00  0.00     0.049 A 
BRANCH  26  28
ATOM     28  C   UNL     1      -2.599  -7.831 -44.033  1.00  0.00     0.026 A 
ATOM     29  C   UNL     1      -3.218  -6.634 -43.718  1.00  0.00     0.096 A 
ATOM     30  C   UNL     1      -3.585  -8.864 -43.825  1.00  0.00     0.009 A 
ATOM     31  N   UNL     1      -4.514  -6.882 -43.376  1.00  0.00    -0.350 N 
ATOM     32  C   UNL     1      -3.597 -10.279 -43.913  1.00  0.00     0.011 A 
ATOM     33  C   UNL     1      -4.777  -8.231 -43.437  1.00  0.00     0.048 A 
ATOM     34  C   UNL     1      -4.775 -10.995 -43.659  1.00  0.00     0.001 A 
ATOM     35  C   UNL     1      -5.962  -8.941 -43.174  1.00  0.00     0.027 A 
ATOM     36  C   UNL     1      -5.944 -10.332 -43.301  1.00  0.00     0.002 A 
ATOM     37  C   UNL     1      -5.463  -5.866 -42.976  1.00  0.00     0.149 C 
ENDBRANCH  26  28
ENDBRANCH  20  22
ENDBRANCH   3  20
BRANCH   4  38
ATOM     38  O   UNL     1       3.017 -10.530 -46.028  1.00  0.00    -0.494 OA
ATOM     39  C   UNL     1       4.396 -10.470 -45.640  1.00  0.00     0.278 C 
ENDBRANCH   4  38
TORSDOF 10
ENDMDL
MODEL 17
REMARK VINA RESULT:    -7.532      3.791      8.963
REMARK INTER + INTRA:         -13.679
REMARK INTER:                 -12.469
REMARK INTRA:                  -1.209
REMARK UNBOUND:                -1.743
REMARK SMILES C=CC(=O)Nc1cc(Nc2nccc(-c3cn(C)c4ccccc34)n2)c(OC)cc1N(C)CCN(C)C
REMARK SMILES IDX 6 1 7 2 8 3 26 4 29 5 30 6 5 7 3 8 4 9 2 11 1 12 31 13 32 14
REMARK SMILES IDX 33 15 34 16 35 17 36 18 37 19 9 20 10 22 11 23 25 24 12 25
REMARK SMILES IDX 14 26 13 27 15 28 16 29 24 30 17 31 23 32 19 33 22 34 20 35
REMARK SMILES IDX 21 36 18 37 27 38 28 39
REMARK H PARENT 5 10 9 21
ROOT
ATOM      1  C   UNL     1       3.899 -15.222 -44.257  1.00  0.00     0.067 A 
ATOM      2  C   UNL     1       2.658 -14.623 -43.955  1.00  0.00     0.058 A 
ATOM      3  C   UNL     1       2.272 -13.412 -44.529  1.00  0.00     0.086 A 
ATOM      4  C   UNL     1       3.188 -12.783 -45.385  1.00  0.00     0.144 A 
ATOM      5  C   UNL     1       4.429 -13.344 -45.685  1.00  0.00     0.076 A 
ATOM      6  C   UNL     1       4.828 -14.556 -45.097  1.00  0.00     0.064 A 
ENDROOT
BRANCH   1   7
ATOM      7  N   UNL     1       4.146 -16.470 -43.631  1.00  0.00    -0.321 N 
ATOM      8  C   UNL     1       4.881 -16.688 -42.480  1.00  0.00     0.247 C 
ATOM      9  O   UNL     1       5.603 -15.907 -41.872  1.00  0.00    -0.270 OA
ATOM     10  H   UNL     1       3.939 -17.283 -44.197  1.00  0.00     0.170 HD
BRANCH   8  11
ATOM     11  C   UNL     1       4.778 -18.119 -42.050  1.00  0.00     0.064 C 
ATOM     12  C   UNL     1       3.692 -18.573 -41.414  1.00  0.00     0.014 C 
ENDBRANCH   8  11
ENDBRANCH   1   7
BRANCH   6  13
ATOM     13  N   UNL     1       6.165 -15.007 -45.205  1.00  0.00    -0.372 N 
ATOM     14  C   UNL     1       6.432 -15.902 -46.340  1.00  0.00     0.143 C 
BRANCH  13  15
ATOM     15  C   UNL     1       7.125 -13.898 -45.012  1.00  0.00     0.131 C 
BRANCH  15  16
ATOM     16  C   UNL     1       7.430 -13.671 -43.514  1.00  0.00     0.105 C 
BRANCH  16  17
ATOM     17  N   UNL     1       6.940 -12.370 -42.997  1.00  0.00    -0.308 NA
ATOM     18  C   UNL     1       7.165 -11.321 -44.004  1.00  0.00     0.105 C 
ATOM     19  C   UNL     1       7.615 -12.002 -41.747  1.00  0.00     0.105 C 
ENDBRANCH  16  17
ENDBRANCH  15  16
ENDBRANCH  13  15
ENDBRANCH   6  13
BRANCH   3  20
ATOM     20  N   UNL     1       1.040 -12.798 -44.263  1.00  0.00    -0.321 N 
ATOM     21  H   UNL     1       0.566 -13.150 -43.441  1.00  0.00     0.170 HD
BRANCH  20  22
ATOM     22  C   UNL     1       0.102 -12.231 -45.127  1.00  0.00     0.227 A 
ATOM     23  N   UNL     1      -0.084 -12.698 -46.373  1.00  0.00    -0.221 NA
ATOM     24  N   UNL     1      -0.626 -11.243 -44.588  1.00  0.00    -0.213 NA
ATOM     25  C   UNL     1      -1.055 -12.116 -47.103  1.00  0.00     0.117 A 
ATOM     26  C   UNL     1      -1.591 -10.675 -45.349  1.00  0.00     0.078 A 
ATOM     27  C   UNL     1      -1.837 -11.087 -46.638  1.00  0.00     0.049 A 
BRANCH  26  28
ATOM     28  C   UNL     1      -2.342  -9.599 -44.700  1.00  0.00     0.026 A 
ATOM     29  C   UNL     1      -1.842  -8.309 -44.650  1.00  0.00     0.096 A 
ATOM     30  C   UNL     1      -3.608  -9.570 -44.010  1.00  0.00     0.009 A 
ATOM     31  N   UNL     1      -2.744  -7.510 -44.014  1.00  0.00    -0.350 N 
ATOM     32  C   UNL     1      -4.591 -10.531 -43.664  1.00  0.00     0.011 A 
ATOM     33  C   UNL     1      -3.838  -8.242 -43.615  1.00  0.00     0.048 A 
ATOM     34  C   UNL     1      -5.758 -10.143 -42.991  1.00  0.00     0.001 A 
ATOM     35  C   UNL     1      -5.002  -7.843 -42.933  1.00  0.00     0.027 A 
ATOM     36  C   UNL     1      -5.962  -8.814 -42.637  1.00  0.00     0.002 A 
ATOM     37  C   UNL     1      -2.554  -6.096 -43.768  1.00  0.00     0.149 C 
ENDBRANCH  26  28
ENDBRANCH  20  22
ENDBRANCH   3  20
BRANCH   4  38
ATOM     38  O   UNL     1       2.854 -11.570 -45.935  1.00  0.00    -0.494 OA
ATOM     39  C   UNL     1       3.763 -10.557 -45.486  1.00  0.00     0.278 C 
ENDBRANCH   4  38
TORSDOF 10
ENDMDL
MODEL 18
REMARK VINA RESULT:    -7.499      3.461      5.505
REMARK INTER + INTRA:         -13.627
REMARK INTER:                 -11.992
REMARK INTRA:                  -1.635
REMARK UNBOUND:                -1.743
REMARK SMILES C=CC(=O)Nc1cc(Nc2nccc(-c3cn(C)c4ccccc34)n2)c(OC)cc1N(C)CCN(C)C
REMARK SMILES IDX 6 1 7 2 8 3 26 4 29 5 30 6 5 7 3 8 4 9 2 11 1 12 31 13 32 14
REMARK SMILES IDX 33 15 34 16 35 17 36 18 37 19 9 20 10 22 11 23 25 24 12 25
REMARK SMILES IDX 14 26 13 27 15 28 16 29 24 30 17 31 23 32 19 33 22 34 20 35
REMARK SMILES IDX 21 36 18 37 27 38 28 39
REMARK H PARENT 5 10 9 21
ROOT
ATOM      1  C   UNL     1       1.863 -10.467 -45.251  1.00  0.00     0.067 A 
ATOM      2  C   UNL     1       2.790 -11.530 -45.265  1.00  0.00     0.058 A 
ATOM      3  C   UNL     1       2.383 -12.856 -45.119  1.00  0.00     0.086 A 
ATOM      4  C   UNL     1       1.017 -13.092 -44.909  1.00  0.00     0.144 A 
ATOM      5  C   UNL     1       0.082 -12.059 -44.871  1.00  0.00     0.076 A 
ATOM      6  C   UNL     1       0.490 -10.720 -45.002  1.00  0.00     0.064 A 
ENDROOT
BRANCH   1   7
ATOM      7  N   UNL     1       2.410  -9.175 -45.446  1.00  0.00    -0.321 N 
ATOM      8  C   UNL     1       3.002  -8.371 -44.488  1.00  0.00     0.247 C 
ATOM      9  O   UNL     1       3.022  -8.517 -43.272  1.00  0.00    -0.270 OA
ATOM     10  H   UNL     1       2.153  -8.725 -46.317  1.00  0.00     0.170 HD
BRANCH   8  11
ATOM     11  C   UNL     1       3.598  -7.150 -45.115  1.00  0.00     0.064 C 
ATOM     12  C   UNL     1       4.865  -7.141 -45.546  1.00  0.00     0.014 C 
ENDBRANCH   8  11
ENDBRANCH   1   7
BRANCH   6  13
ATOM     13  N   UNL     1      -0.407  -9.661 -44.727  1.00  0.00    -0.372 N 
ATOM     14  C   UNL     1      -1.096  -9.106 -45.901  1.00  0.00     0.143 C 
BRANCH  13  15
ATOM     15  C   UNL     1      -1.260  -9.966 -43.558  1.00  0.00     0.131 C 
BRANCH  15  16
ATOM     16  C   UNL     1      -2.758  -9.956 -43.935  1.00  0.00     0.105 C 
BRANCH  16  17
ATOM     17  N   UNL     1      -3.574  -9.030 -43.112  1.00  0.00    -0.308 NA
ATOM     18  C   UNL     1      -4.723  -9.752 -42.546  1.00  0.00     0.105 C 
ATOM     19  C   UNL     1      -4.053  -7.890 -43.904  1.00  0.00     0.105 C 
ENDBRANCH  16  17
ENDBRANCH  15  16
ENDBRANCH  13  15
ENDBRANCH   6  13
BRANCH   3  20
ATOM     20  N   UNL     1       3.276 -13.937 -45.145  1.00  0.00    -0.321 N 
ATOM     21  H   UNL     1       2.985 -14.706 -45.734  1.00  0.00     0.170 HD
BRANCH  20  22
ATOM     22  C   UNL     1       4.157 -14.412 -44.172  1.00  0.00     0.227 A 
ATOM     23  N   UNL     1       5.079 -13.615 -43.605  1.00  0.00    -0.221 NA
ATOM     24  N   UNL     1       3.961 -15.689 -43.817  1.00  0.00    -0.213 NA
ATOM     25  C   UNL     1       5.840 -14.159 -42.636  1.00  0.00     0.117 A 
ATOM     26  C   UNL     1       4.745 -16.208 -42.844  1.00  0.00     0.078 A 
ATOM     27  C   UNL     1       5.719 -15.464 -42.221  1.00  0.00     0.049 A 
BRANCH  26  28
ATOM     28  C   UNL     1       4.480 -17.609 -42.512  1.00  0.00     0.026 A 
ATOM     29  C   UNL     1       5.318 -18.619 -42.952  1.00  0.00     0.096 A 
ATOM     30  C   UNL     1       3.425 -18.254 -41.769  1.00  0.00     0.009 A 
ATOM     31  N   UNL     1       4.855 -19.813 -42.486  1.00  0.00    -0.350 N 
ATOM     32  C   UNL     1       2.246 -17.823 -41.109  1.00  0.00     0.011 A 
ATOM     33  C   UNL     1       3.705 -19.630 -41.754  1.00  0.00     0.048 A 
ATOM     34  C   UNL     1       1.430 -18.745 -40.439  1.00  0.00     0.001 A 
ATOM     35  C   UNL     1       2.890 -20.565 -41.091  1.00  0.00     0.027 A 
ATOM     36  C   UNL     1       1.753 -20.097 -40.425  1.00  0.00     0.002 A 
ATOM     37  C   UNL     1       5.476 -21.092 -42.757  1.00  0.00     0.149 C 
ENDBRANCH  26  28
ENDBRANCH  20  22
ENDBRANCH   3  20
BRANCH   4  38
ATOM     38  O   UNL     1       0.590 -14.385 -44.722  1.00  0.00    -0.494 OA
ATOM     39  C   UNL     1       0.374 -14.636 -43.328  1.00  0.00     0.278 C 
ENDBRANCH   4  38
TORSDOF 10
ENDMDL
MODEL 19
REMARK VINA RESULT:    -7.486      5.100      8.744
REMARK INTER + INTRA:         -13.606
REMARK INTER:                 -11.912
REMARK INTRA:                  -1.694
REMARK UNBOUND:                -1.743
REMARK SMILES C=CC(=O)Nc1cc(Nc2nccc(-c3cn(C)c4ccccc34)n2)c(OC)cc1N(C)CCN(C)C
REMARK SMILES IDX 6 1 7 2 8 3 26 4 29 5 30 6 5 7 3 8 4 9 2 11 1 12 31 13 32 14
REMARK SMILES IDX 33 15 34 16 35 17 36 18 37 19 9 20 10 22 11 23 25 24 12 25
REMARK SMILES IDX 14 26 13 27 15 28 16 29 24 30 17 31 23 32 19 33 22 34 20 35
REMARK SMILES IDX 21 36 18 37 27 38 28 39
REMARK H PARENT 5 10 9 21
ROOT
ATOM      1  C   UNL     1       6.807 -12.846 -43.965  1.00  0.00     0.067 A 
ATOM      2  C   UNL     1       5.604 -13.392 -44.461  1.00  0.00     0.058 A 
ATOM      3  C   UNL     1       5.064 -14.567 -43.938  1.00  0.00     0.086 A 
ATOM      4  C   UNL     1       5.788 -15.214 -42.926  1.00  0.00     0.144 A 
ATOM      5  C   UNL     1       6.988 -14.706 -42.430  1.00  0.00     0.076 A 
ATOM      6  C   UNL     1       7.543 -13.532 -42.966  1.00  0.00     0.064 A 
ENDROOT
BRANCH   1   7
ATOM      7  N   UNL     1       7.220 -11.630 -44.564  1.00  0.00    -0.321 N 
ATOM      8  C   UNL     1       7.240 -10.379 -43.972  1.00  0.00     0.247 C 
ATOM      9  O   UNL     1       6.756 -10.030 -42.903  1.00  0.00    -0.270 OA
ATOM     10  H   UNL     1       7.306 -11.654 -45.572  1.00  0.00     0.170 HD
BRANCH   8  11
ATOM     11  C   UNL     1       7.891  -9.377 -44.874  1.00  0.00     0.064 C 
ATOM     12  C   UNL     1       7.162  -8.579 -45.662  1.00  0.00     0.014 C 
ENDBRANCH   8  11
ENDBRANCH   1   7
BRANCH   6  13
ATOM     13  N   UNL     1       8.865 -13.143 -42.641  1.00  0.00    -0.372 N 
ATOM     14  C   UNL     1       9.105 -12.876 -41.216  1.00  0.00     0.143 C 
BRANCH  13  15
ATOM     15  C   UNL     1       9.861 -14.002 -43.317  1.00  0.00     0.131 C 
BRANCH  15  16
ATOM     16  C   UNL     1      10.511 -13.276 -44.516  1.00  0.00     0.105 C 
BRANCH  16  17
ATOM     17  N   UNL     1      10.463 -14.053 -45.780  1.00  0.00    -0.308 NA
ATOM     18  C   UNL     1       9.402 -15.068 -45.697  1.00  0.00     0.105 C 
ATOM     19  C   UNL     1      11.748 -14.708 -46.053  1.00  0.00     0.105 C 
ENDBRANCH  16  17
ENDBRANCH  15  16
ENDBRANCH  13  15
ENDBRANCH   6  13
BRANCH   3  20
ATOM     20  N   UNL     1       3.864 -15.127 -44.397  1.00  0.00    -0.321 N 
ATOM     21  H   UNL     1       3.882 -15.417 -45.366  1.00  0.00     0.170 HD
BRANCH  20  22
ATOM     22  C   UNL     1       2.544 -14.889 -44.013  1.00  0.00     0.227 A 
ATOM     23  N   UNL     1       1.965 -13.688 -44.180  1.00  0.00    -0.221 NA
ATOM     24  N   UNL     1       1.900 -15.963 -43.533  1.00  0.00    -0.213 NA
ATOM     25  C   UNL     1       0.669 -13.583 -43.828  1.00  0.00     0.117 A 
ATOM     26  C   UNL     1       0.600 -15.823 -43.184  1.00  0.00     0.078 A 
ATOM     27  C   UNL     1      -0.063 -14.625 -43.313  1.00  0.00     0.049 A 
BRANCH  26  28
ATOM     28  C   UNL     1      -0.038 -17.033 -42.663  1.00  0.00     0.026 A 
ATOM     29  C   UNL     1       0.684 -17.966 -41.939  1.00  0.00     0.096 A 
ATOM     30  C   UNL     1      -1.384 -17.544 -42.753  1.00  0.00     0.009 A 
ATOM     31  N   UNL     1      -0.151 -18.974 -41.559  1.00  0.00    -0.350 N 
ATOM     32  C   UNL     1      -2.583 -17.122 -43.380  1.00  0.00     0.011 A 
ATOM     33  C   UNL     1      -1.423 -18.748 -42.032  1.00  0.00     0.048 A 
ATOM     34  C   UNL     1      -3.760 -17.871 -43.238  1.00  0.00     0.001 A 
ATOM     35  C   UNL     1      -2.596 -19.510 -41.888  1.00  0.00     0.027 A 
ATOM     36  C   UNL     1      -3.766 -19.046 -42.494  1.00  0.00     0.002 A 
ATOM     37  C   UNL     1       0.260 -20.132 -40.794  1.00  0.00     0.149 C 
ENDBRANCH  26  28
ENDBRANCH  20  22
ENDBRANCH   3  20
BRANCH   4  38
ATOM     38  O   UNL     1       5.302 -16.394 -42.417  1.00  0.00    -0.494 OA
ATOM     39  C   UNL     1       6.264 -17.442 -42.597  1.00  0.00     0.278 C 
ENDBRANCH   4  38
TORSDOF 10
ENDMDL
MODEL 20
REMARK VINA RESULT:    -7.373      3.761      7.279
REMARK INTER + INTRA:         -13.426
REMARK INTER:                 -11.556
REMARK INTRA:                  -1.869
REMARK UNBOUND:                -1.743
REMARK SMILES C=CC(=O)Nc1cc(Nc2nccc(-c3cn(C)c4ccccc34)n2)c(OC)cc1N(C)CCN(C)C
REMARK SMILES IDX 6 1 7 2 8 3 26 4 29 5 30 6 5 7 3 8 4 9 2 11 1 12 31 13 32 14
REMARK SMILES IDX 33 15 34 16 35 17 36 18 37 19 9 20 10 22 11 23 25 24 12 25
REMARK SMILES IDX 14 26 13 27 15 28 16 29 24 30 17 31 23 32 19 33 22 34 20 35
REMARK SMILES IDX 21 36 18 37 27 38 28 39
REMARK H PARENT 5 10 9 21
ROOT
ATOM      1  C   UNL     1       1.028 -10.250 -44.892  1.00  0.00     0.067 A 
ATOM      2  C   UNL     1       2.374  -9.835 -44.969  1.00  0.00     0.058 A 
ATOM      3  C   UNL     1       2.725  -8.485 -44.954  1.00  0.00     0.086 A 
ATOM      4  C   UNL     1       1.682  -7.548 -44.906  1.00  0.00     0.144 A 
ATOM      5  C   UNL     1       0.342  -7.930 -44.849  1.00  0.00     0.076 A 
ATOM      6  C   UNL     1      -0.015  -9.290 -44.880  1.00  0.00     0.064 A 
ENDROOT
BRANCH   1   7
ATOM      7  N   UNL     1       0.819 -11.651 -44.881  1.00  0.00    -0.321 N 
ATOM      8  C   UNL     1       0.781 -12.474 -43.769  1.00  0.00     0.247 C 
ATOM      9  O   UNL     1       1.085 -12.213 -42.612  1.00  0.00    -0.270 OA
ATOM     10  H   UNL     1       0.917 -12.108 -45.779  1.00  0.00     0.170 HD
BRANCH   8  11
ATOM     11  C   UNL     1       0.379 -13.864 -44.154  1.00  0.00     0.064 C 
ATOM     12  C   UNL     1       0.886 -14.930 -43.524  1.00  0.00     0.014 C 
ENDBRANCH   8  11
ENDBRANCH   1   7
BRANCH   6  13
ATOM     13  N   UNL     1      -1.364  -9.678 -45.063  1.00  0.00    -0.372 N 
ATOM     14  C   UNL     1      -2.105  -9.966 -43.826  1.00  0.00     0.143 C 
BRANCH  13  15
ATOM     15  C   UNL     1      -2.048  -8.805 -46.041  1.00  0.00     0.131 C 
BRANCH  15  16
ATOM     16  C   UNL     1      -3.574  -8.771 -45.796  1.00  0.00     0.105 C 
BRANCH  16  17
ATOM     17  N   UNL     1      -4.190  -7.447 -46.058  1.00  0.00    -0.308 NA
ATOM     18  C   UNL     1      -3.293  -6.382 -45.585  1.00  0.00     0.105 C 
ATOM     19  C   UNL     1      -5.493  -7.322 -45.392  1.00  0.00     0.105 C 
ENDBRANCH  16  17
ENDBRANCH  15  16
ENDBRANCH  13  15
ENDBRANCH   6  13
BRANCH   3  20
ATOM     20  N   UNL     1       4.052  -8.039 -45.013  1.00  0.00    -0.321 N 
ATOM     21  H   UNL     1       4.300  -7.575 -45.878  1.00  0.00     0.170 HD
BRANCH  20  22
ATOM     22  C   UNL     1       5.208  -8.543 -44.416  1.00  0.00     0.227 A 
ATOM     23  N   UNL     1       5.910  -7.829 -43.521  1.00  0.00    -0.221 NA
ATOM     24  N   UNL     1       5.509  -9.804 -44.759  1.00  0.00    -0.213 NA
ATOM     25  C   UNL     1       6.977  -8.433 -42.962  1.00  0.00     0.117 A 
ATOM     26  C   UNL     1       6.589 -10.381 -44.184  1.00  0.00     0.078 A 
ATOM     27  C   UNL     1       7.368  -9.714 -43.267  1.00  0.00     0.049 A 
BRANCH  26  28
ATOM     28  C   UNL     1       6.863 -11.754 -44.610  1.00  0.00     0.026 A 
ATOM     29  C   UNL     1       8.159 -12.232 -44.696  1.00  0.00     0.096 A 
ATOM     30  C   UNL     1       6.005 -12.838 -45.025  1.00  0.00     0.009 A 
ATOM     31  N   UNL     1       8.126 -13.534 -45.093  1.00  0.00    -0.350 N 
ATOM     32  C   UNL     1       4.609 -13.004 -45.211  1.00  0.00     0.011 A 
ATOM     33  C   UNL     1       6.828 -13.942 -45.297  1.00  0.00     0.048 A 
ATOM     34  C   UNL     1       4.090 -14.243 -45.612  1.00  0.00     0.001 A 
ATOM     35  C   UNL     1       6.318 -15.187 -45.705  1.00  0.00     0.027 A 
ATOM     36  C   UNL     1       4.935 -15.322 -45.848  1.00  0.00     0.002 A 
ATOM     37  C   UNL     1       9.299 -14.356 -45.300  1.00  0.00     0.149 C 
ENDBRANCH  26  28
ENDBRANCH  20  22
ENDBRANCH   3  20
BRANCH   4  38
ATOM     38  O   UNL     1       1.993  -6.210 -44.930  1.00  0.00    -0.494 OA
ATOM     39  C   UNL     1       0.794  -5.425 -44.929  1.00  0.00     0.278 C 
ENDBRANCH   4  38
TORSDOF 10
ENDMDL
