MODEL 1
REMARK VINA RESULT:    -7.631      0.000      0.000
REMARK INTER + INTRA:         -11.417
REMARK INTER:                 -10.308
REMARK INTRA:                  -1.110
REMARK UNBOUND:                -1.110
REMARK SMILES CCCS(=O)(=O)Nc1ccc(F)c(C(=O)c2c[nH]c3ncc(Cl)cc23)c1F
REMARK SMILES IDX 7 1 4 3 5 4 6 5 3 6 2 7 1 8 8 9 9 10 26 11 10 12 13 13 11 14
REMARK SMILES IDX 27 15 12 16 14 17 15 18 16 19 17 20 25 21 18 22 24 23 19 24
REMARK SMILES IDX 22 25 20 26 21 27 23 29
REMARK H PARENT 7 2 18 28
ROOT
ATOM      1  N   UNL     1      -1.477  -6.634 -45.415  1.00  0.00    -0.281 N 
ATOM      2  H   UNL     1      -1.799  -6.053 -46.199  1.00  0.00     0.180 HD
ENDROOT
BRANCH   1   3
ATOM      3  S   UNL     1      -2.363  -6.140 -44.047  1.00  0.00     0.232 S 
ATOM      4  O   UNL     1      -1.632  -5.103 -43.352  1.00  0.00    -0.207 OA
ATOM      5  O   UNL     1      -2.761  -7.359 -43.379  1.00  0.00    -0.207 OA
BRANCH   3   6
ATOM      6  C   UNL     1      -3.813  -5.410 -44.800  1.00  0.00     0.159 C 
BRANCH   6   7
ATOM      7  C   UNL     1      -5.118  -5.904 -44.189  1.00  0.00     0.015 C 
ATOM      8  C   UNL     1      -5.748  -6.993 -45.042  1.00  0.00     0.005 C 
ENDBRANCH   6   7
ENDBRANCH   3   6
ENDBRANCH   1   3
BRANCH   1   9
ATOM      9  C   UNL     1      -1.529  -8.038 -45.694  1.00  0.00     0.085 A 
ATOM     10  C   UNL     1      -2.624  -8.563 -46.383  1.00  0.00     0.033 A 
ATOM     11  C   UNL     1      -0.429  -8.850 -45.401  1.00  0.00     0.161 A 
ATOM     12  C   UNL     1      -2.625  -9.910 -46.755  1.00  0.00     0.042 A 
ATOM     13  C   UNL     1      -0.422 -10.182 -45.794  1.00  0.00     0.096 A 
ATOM     14  C   UNL     1      -1.522 -10.712 -46.460  1.00  0.00     0.137 A 
ATOM     15  F   UNL     1       0.617  -8.323 -44.746  1.00  0.00    -0.204 F 
ATOM     16  F   UNL     1      -1.534 -11.992 -46.855  1.00  0.00    -0.206 F 
BRANCH  13  17
ATOM     17  C   UNL     1       0.730 -11.033 -45.501  1.00  0.00     0.201 C 
ATOM     18  O   UNL     1       1.773 -10.813 -46.112  1.00  0.00    -0.288 OA
BRANCH  17  19
ATOM     19  C   UNL     1       0.591 -12.094 -44.506  1.00  0.00     0.050 A 
ATOM     20  C   UNL     1       0.606 -11.952 -43.124  1.00  0.00     0.097 A 
ATOM     21  C   UNL     1       0.423 -13.495 -44.766  1.00  0.00     0.031 A 
ATOM     22  N   UNL     1       0.440 -13.191 -42.557  1.00  0.00    -0.345 N 
ATOM     23  C   UNL     1       0.334 -14.302 -45.918  1.00  0.00     0.035 A 
ATOM     24  C   UNL     1       0.333 -14.137 -43.535  1.00  0.00     0.138 A 
ATOM     25  C   UNL     1       0.164 -15.672 -45.734  1.00  0.00     0.060 A 
ATOM     26  N   UNL     1       0.170 -15.452 -43.300  1.00  0.00    -0.237 NA
ATOM     27  C   UNL     1       0.091 -16.180 -44.442  1.00  0.00     0.134 A 
ATOM     28  H   UNL     1       0.400 -13.400 -41.569  1.00  0.00     0.167 HD
ATOM     29  Cl  UNL     1       0.048 -16.720 -47.093  1.00  0.00    -0.083 Cl
ENDBRANCH  17  19
ENDBRANCH  13  17
ENDBRANCH   1   9
TORSDOF 6
ENDMDL
MODEL 2
REMARK VINA RESULT:    -7.608      2.510      3.184
REMARK INTER + INTRA:         -11.386
REMARK INTER:                 -10.104
REMARK INTRA:                  -1.282
REMARK UNBOUND:                -1.110
REMARK SMILES CCCS(=O)(=O)Nc1ccc(F)c(C(=O)c2c[nH]c3ncc(Cl)cc23)c1F
REMARK SMILES IDX 7 1 4 3 5 4 6 5 3 6 2 7 1 8 8 9 9 10 26 11 10 12 13 13 11 14
REMARK SMILES IDX 27 15 12 16 14 17 15 18 16 19 17 20 25 21 18 22 24 23 19 24
REMARK SMILES IDX 22 25 20 26 21 27 23 29
REMARK H PARENT 7 2 18 28
ROOT
ATOM      1  N   UNL     1      -3.345  -7.528 -43.117  1.00  0.00    -0.281 N 
ATOM      2  H   UNL     1      -3.316  -6.642 -42.598  1.00  0.00     0.180 HD
ENDROOT
BRANCH   1   3
ATOM      3  S   UNL     1      -4.735  -7.474 -44.098  1.00  0.00     0.232 S 
ATOM      4  O   UNL     1      -4.511  -8.261 -45.291  1.00  0.00    -0.207 OA
ATOM      5  O   UNL     1      -5.104  -6.077 -44.177  1.00  0.00    -0.207 OA
BRANCH   3   6
ATOM      6  C   UNL     1      -5.935  -8.318 -43.073  1.00  0.00     0.159 C 
BRANCH   6   7
ATOM      7  C   UNL     1      -5.340  -9.479 -42.288  1.00  0.00     0.015 C 
ATOM      8  C   UNL     1      -5.715 -10.814 -42.911  1.00  0.00     0.005 C 
ENDBRANCH   6   7
ENDBRANCH   3   6
ENDBRANCH   1   3
BRANCH   1   9
ATOM      9  C   UNL     1      -2.125  -7.815 -43.812  1.00  0.00     0.085 A 
ATOM     10  C   UNL     1      -1.499  -6.807 -44.548  1.00  0.00     0.033 A 
ATOM     11  C   UNL     1      -1.497  -9.052 -43.640  1.00  0.00     0.161 A 
ATOM     12  C   UNL     1      -0.253  -7.051 -45.133  1.00  0.00     0.042 A 
ATOM     13  C   UNL     1      -0.248  -9.283 -44.202  1.00  0.00     0.096 A 
ATOM     14  C   UNL     1       0.366  -8.288 -44.955  1.00  0.00     0.137 A 
ATOM     15  F   UNL     1      -2.112 -10.004 -42.921  1.00  0.00    -0.204 F 
ATOM     16  F   UNL     1       1.574  -8.485 -45.499  1.00  0.00    -0.206 F 
BRANCH  13  17
ATOM     17  C   UNL     1       0.420 -10.570 -44.016  1.00  0.00     0.201 C 
ATOM     18  O   UNL     1       1.190 -10.683 -43.066  1.00  0.00    -0.288 OA
BRANCH  17  19
ATOM     19  C   UNL     1       0.142 -11.653 -44.957  1.00  0.00     0.050 A 
ATOM     20  C   UNL     1      -0.195 -11.530 -46.299  1.00  0.00     0.097 A 
ATOM     21  C   UNL     1       0.152 -13.059 -44.671  1.00  0.00     0.031 A 
ATOM     22  N   UNL     1      -0.367 -12.788 -46.823  1.00  0.00    -0.345 N 
ATOM     23  C   UNL     1       0.401 -13.853 -43.534  1.00  0.00     0.035 A 
ATOM     24  C   UNL     1      -0.166 -13.724 -45.850  1.00  0.00     0.138 A 
ATOM     25  C   UNL     1       0.308 -15.236 -43.679  1.00  0.00     0.060 A 
ATOM     26  N   UNL     1      -0.271 -15.052 -46.047  1.00  0.00    -0.237 NA
ATOM     27  C   UNL     1      -0.022 -15.767 -44.921  1.00  0.00     0.134 A 
ATOM     28  H   UNL     1      -0.607 -13.014 -47.777  1.00  0.00     0.167 HD
ATOM     29  Cl  UNL     1       0.596 -16.269 -42.336  1.00  0.00    -0.083 Cl
ENDBRANCH  17  19
ENDBRANCH  13  17
ENDBRANCH   1   9
TORSDOF 6
ENDMDL
MODEL 3
REMARK VINA RESULT:    -7.551      8.797     10.797
REMARK INTER + INTRA:         -11.309
REMARK INTER:                  -9.993
REMARK INTRA:                  -1.316
REMARK UNBOUND:                -1.110
REMARK SMILES CCCS(=O)(=O)Nc1ccc(F)c(C(=O)c2c[nH]c3ncc(Cl)cc23)c1F
REMARK SMILES IDX 7 1 4 3 5 4 6 5 3 6 2 7 1 8 8 9 9 10 26 11 10 12 13 13 11 14
REMARK SMILES IDX 27 15 12 16 14 17 15 18 16 19 17 20 25 21 18 22 24 23 19 24
REMARK SMILES IDX 22 25 20 26 21 27 23 29
REMARK H PARENT 7 2 18 28
ROOT
ATOM      1  N   UNL     1       6.612 -17.696 -43.599  1.00  0.00    -0.281 N 
ATOM      2  H   UNL     1       7.571 -18.005 -43.400  1.00  0.00     0.180 HD
ENDROOT
BRANCH   1   3
ATOM      3  S   UNL     1       6.548 -17.351 -45.265  1.00  0.00     0.232 S 
ATOM      4  O   UNL     1       5.220 -17.641 -45.763  1.00  0.00    -0.207 OA
ATOM      5  O   UNL     1       7.720 -17.974 -45.839  1.00  0.00    -0.207 OA
BRANCH   3   6
ATOM      6  C   UNL     1       6.788 -15.577 -45.276  1.00  0.00     0.159 C 
BRANCH   6   7
ATOM      7  C   UNL     1       5.514 -14.802 -45.587  1.00  0.00     0.015 C 
ATOM      8  C   UNL     1       5.659 -13.335 -45.220  1.00  0.00     0.005 C 
ENDBRANCH   6   7
ENDBRANCH   3   6
ENDBRANCH   1   3
BRANCH   1   9
ATOM      9  C   UNL     1       5.616 -18.613 -43.133  1.00  0.00     0.085 A 
ATOM     10  C   UNL     1       5.748 -19.975 -43.412  1.00  0.00     0.033 A 
ATOM     11  C   UNL     1       4.594 -18.166 -42.288  1.00  0.00     0.161 A 
ATOM     12  C   UNL     1       4.840 -20.884 -42.864  1.00  0.00     0.042 A 
ATOM     13  C   UNL     1       3.708 -19.076 -41.726  1.00  0.00     0.096 A 
ATOM     14  C   UNL     1       3.825 -20.430 -42.022  1.00  0.00     0.137 A 
ATOM     15  F   UNL     1       4.490 -16.854 -42.026  1.00  0.00    -0.204 F 
ATOM     16  F   UNL     1       2.987 -21.325 -41.484  1.00  0.00    -0.206 F 
BRANCH  13  17
ATOM     17  C   UNL     1       2.645 -18.616 -40.833  1.00  0.00     0.201 C 
ATOM     18  O   UNL     1       2.881 -18.594 -39.628  1.00  0.00    -0.288 OA
BRANCH  17  19
ATOM     19  C   UNL     1       1.366 -18.207 -41.408  1.00  0.00     0.050 A 
ATOM     20  C   UNL     1       1.036 -16.954 -41.909  1.00  0.00     0.097 A 
ATOM     21  C   UNL     1       0.194 -19.022 -41.556  1.00  0.00     0.031 A 
ATOM     22  N   UNL     1      -0.261 -16.991 -42.359  1.00  0.00    -0.345 N 
ATOM     23  C   UNL     1      -0.150 -20.355 -41.255  1.00  0.00     0.035 A 
ATOM     24  C   UNL     1      -0.787 -18.233 -42.148  1.00  0.00     0.138 A 
ATOM     25  C   UNL     1      -1.440 -20.775 -41.571  1.00  0.00     0.060 A 
ATOM     26  N   UNL     1      -2.045 -18.585 -42.474  1.00  0.00    -0.237 NA
ATOM     27  C   UNL     1      -2.321 -19.876 -42.162  1.00  0.00     0.134 A 
ATOM     28  H   UNL     1      -0.772 -16.230 -42.783  1.00  0.00     0.167 HD
ATOM     29  Cl  UNL     1      -1.933 -22.387 -41.232  1.00  0.00    -0.083 Cl
ENDBRANCH  17  19
ENDBRANCH  13  17
ENDBRANCH   1   9
TORSDOF 6
ENDMDL
MODEL 4
REMARK VINA RESULT:    -7.455      1.470      2.400
REMARK INTER + INTRA:         -11.179
REMARK INTER:                 -10.050
REMARK INTRA:                  -1.129
REMARK UNBOUND:                -1.110
REMARK SMILES CCCS(=O)(=O)Nc1ccc(F)c(C(=O)c2c[nH]c3ncc(Cl)cc23)c1F
REMARK SMILES IDX 7 1 4 3 5 4 6 5 3 6 2 7 1 8 8 9 9 10 26 11 10 12 13 13 11 14
REMARK SMILES IDX 27 15 12 16 14 17 15 18 16 19 17 20 25 21 18 22 24 23 19 24
REMARK SMILES IDX 22 25 20 26 21 27 23 29
REMARK H PARENT 7 2 18 28
ROOT
ATOM      1  N   UNL     1      -2.938  -8.841 -45.699  1.00  0.00    -0.281 N 
ATOM      2  H   UNL     1      -3.230  -9.470 -46.457  1.00  0.00     0.180 HD
ENDROOT
BRANCH   1   3
ATOM      3  S   UNL     1      -3.813  -9.307 -44.315  1.00  0.00     0.232 S 
ATOM      4  O   UNL     1      -3.149  -8.799 -43.134  1.00  0.00    -0.207 OA
ATOM      5  O   UNL     1      -4.081 -10.719 -44.479  1.00  0.00    -0.207 OA
BRANCH   3   6
ATOM      6  C   UNL     1      -5.346  -8.411 -44.538  1.00  0.00     0.159 C 
BRANCH   6   7
ATOM      7  C   UNL     1      -5.190  -7.159 -45.391  1.00  0.00     0.015 C 
ATOM      8  C   UNL     1      -4.885  -5.943 -44.532  1.00  0.00     0.005 C 
ENDBRANCH   6   7
ENDBRANCH   3   6
ENDBRANCH   1   3
BRANCH   1   9
ATOM      9  C   UNL     1      -1.517  -8.788 -45.526  1.00  0.00     0.085 A 
ATOM     10  C   UNL     1      -0.911  -7.580 -45.173  1.00  0.00     0.033 A 
ATOM     11  C   UNL     1      -0.761  -9.964 -45.574  1.00  0.00     0.161 A 
ATOM     12  C   UNL     1       0.458  -7.549 -44.893  1.00  0.00     0.042 A 
ATOM     13  C   UNL     1       0.594  -9.934 -45.271  1.00  0.00     0.096 A 
ATOM     14  C   UNL     1       1.203  -8.727 -44.942  1.00  0.00     0.137 A 
ATOM     15  F   UNL     1      -1.365 -11.115 -45.906  1.00  0.00    -0.204 F 
ATOM     16  F   UNL     1       2.506  -8.676 -44.638  1.00  0.00    -0.206 F 
BRANCH  13  17
ATOM     17  C   UNL     1       1.386 -11.161 -45.307  1.00  0.00     0.201 C 
ATOM     18  O   UNL     1       2.369 -11.186 -46.044  1.00  0.00    -0.288 OA
BRANCH  17  19
ATOM     19  C   UNL     1       0.981 -12.290 -44.473  1.00  0.00     0.050 A 
ATOM     20  C   UNL     1       0.896 -12.319 -43.086  1.00  0.00     0.097 A 
ATOM     21  C   UNL     1       0.599 -13.597 -44.927  1.00  0.00     0.031 A 
ATOM     22  N   UNL     1       0.471 -13.566 -42.700  1.00  0.00    -0.345 N 
ATOM     23  C   UNL     1       0.476 -14.231 -46.179  1.00  0.00     0.035 A 
ATOM     24  C   UNL     1       0.292 -14.353 -43.801  1.00  0.00     0.138 A 
ATOM     25  C   UNL     1       0.060 -15.561 -46.190  1.00  0.00     0.060 A 
ATOM     26  N   UNL     1      -0.113 -15.636 -43.753  1.00  0.00    -0.237 NA
ATOM     27  C   UNL     1      -0.214 -16.197 -44.985  1.00  0.00     0.134 A 
ATOM     28  H   UNL     1       0.309 -13.879 -41.754  1.00  0.00     0.167 HD
ATOM     29  Cl  UNL     1      -0.112 -16.401 -47.680  1.00  0.00    -0.083 Cl
ENDBRANCH  17  19
ENDBRANCH  13  17
ENDBRANCH   1   9
TORSDOF 6
ENDMDL
MODEL 5
REMARK VINA RESULT:    -7.420      3.270      6.963
REMARK INTER + INTRA:         -11.132
REMARK INTER:                  -9.627
REMARK INTRA:                  -1.505
REMARK UNBOUND:                -1.110
REMARK SMILES CCCS(=O)(=O)Nc1ccc(F)c(C(=O)c2c[nH]c3ncc(Cl)cc23)c1F
REMARK SMILES IDX 7 1 4 3 5 4 6 5 3 6 2 7 1 8 8 9 9 10 26 11 10 12 13 13 11 14
REMARK SMILES IDX 27 15 12 16 14 17 15 18 16 19 17 20 25 21 18 22 24 23 19 24
REMARK SMILES IDX 22 25 20 26 21 27 23 29
REMARK H PARENT 7 2 18 28
ROOT
ATOM      1  N   UNL     1       1.091  -9.861 -45.477  1.00  0.00    -0.281 N 
ATOM      2  H   UNL     1       2.047  -9.898 -45.851  1.00  0.00     0.180 HD
ENDROOT
BRANCH   1   3
ATOM      3  S   UNL     1       1.032 -10.965 -44.181  1.00  0.00     0.232 S 
ATOM      4  O   UNL     1       0.446 -10.318 -43.027  1.00  0.00    -0.207 OA
ATOM      5  O   UNL     1       2.346 -11.566 -44.121  1.00  0.00    -0.207 OA
BRANCH   3   6
ATOM      6  C   UNL     1      -0.120 -12.187 -44.799  1.00  0.00     0.159 C 
BRANCH   6   7
ATOM      7  C   UNL     1      -0.099 -12.317 -46.316  1.00  0.00     0.015 C 
ATOM      8  C   UNL     1      -0.221 -13.770 -46.746  1.00  0.00     0.005 C 
ENDBRANCH   6   7
ENDBRANCH   3   6
ENDBRANCH   1   3
BRANCH   1   9
ATOM      9  C   UNL     1       0.660  -8.533 -45.159  1.00  0.00     0.085 A 
ATOM     10  C   UNL     1       1.578  -7.615 -44.646  1.00  0.00     0.033 A 
ATOM     11  C   UNL     1      -0.635  -8.119 -45.489  1.00  0.00     0.161 A 
ATOM     12  C   UNL     1       1.189  -6.288 -44.441  1.00  0.00     0.042 A 
ATOM     13  C   UNL     1      -1.011  -6.795 -45.307  1.00  0.00     0.096 A 
ATOM     14  C   UNL     1      -0.104  -5.885 -44.775  1.00  0.00     0.137 A 
ATOM     15  F   UNL     1      -1.500  -9.016 -45.989  1.00  0.00    -0.204 F 
ATOM     16  F   UNL     1      -0.442  -4.601 -44.599  1.00  0.00    -0.206 F 
BRANCH  13  17
ATOM     17  C   UNL     1      -2.359  -6.354 -45.662  1.00  0.00     0.201 C 
ATOM     18  O   UNL     1      -2.576  -6.068 -46.836  1.00  0.00    -0.288 OA
BRANCH  17  19
ATOM     19  C   UNL     1      -3.376  -6.278 -44.616  1.00  0.00     0.050 A 
ATOM     20  C   UNL     1      -3.802  -5.139 -43.944  1.00  0.00     0.097 A 
ATOM     21  C   UNL     1      -4.128  -7.372 -44.071  1.00  0.00     0.031 A 
ATOM     22  N   UNL     1      -4.774  -5.501 -43.044  1.00  0.00    -0.345 N 
ATOM     23  C   UNL     1      -4.186  -8.763 -44.292  1.00  0.00     0.035 A 
ATOM     24  C   UNL     1      -4.980  -6.849 -43.104  1.00  0.00     0.138 A 
ATOM     25  C   UNL     1      -5.086  -9.501 -43.526  1.00  0.00     0.060 A 
ATOM     26  N   UNL     1      -5.866  -7.512 -42.338  1.00  0.00    -0.237 NA
ATOM     27  C   UNL     1      -5.879  -8.845 -42.592  1.00  0.00     0.134 A 
ATOM     28  H   UNL     1      -5.275  -4.884 -42.420  1.00  0.00     0.167 HD
ATOM     29  Cl  UNL     1      -5.212 -11.202 -43.739  1.00  0.00    -0.083 Cl
ENDBRANCH  17  19
ENDBRANCH  13  17
ENDBRANCH   1   9
TORSDOF 6
ENDMDL
MODEL 6
REMARK VINA RESULT:    -7.303      9.617     11.498
REMARK INTER + INTRA:         -10.975
REMARK INTER:                  -9.798
REMARK INTRA:                  -1.176
REMARK UNBOUND:                -1.110
REMARK SMILES CCCS(=O)(=O)Nc1ccc(F)c(C(=O)c2c[nH]c3ncc(Cl)cc23)c1F
REMARK SMILES IDX 7 1 4 3 5 4 6 5 3 6 2 7 1 8 8 9 9 10 26 11 10 12 13 13 11 14
REMARK SMILES IDX 27 15 12 16 14 17 15 18 16 19 17 20 25 21 18 22 24 23 19 24
REMARK SMILES IDX 22 25 20 26 21 27 23 29
REMARK H PARENT 7 2 18 28
ROOT
ATOM      1  N   UNL     1      -0.364 -19.892 -40.729  1.00  0.00    -0.281 N 
ATOM      2  H   UNL     1      -1.084 -19.310 -40.285  1.00  0.00     0.180 HD
ENDROOT
BRANCH   1   3
ATOM      3  S   UNL     1      -1.140 -20.764 -41.969  1.00  0.00     0.232 S 
ATOM      4  O   UNL     1      -0.369 -21.950 -42.275  1.00  0.00    -0.207 OA
ATOM      5  O   UNL     1      -1.461 -19.791 -42.989  1.00  0.00    -0.207 OA
BRANCH   3   6
ATOM      6  C   UNL     1      -2.659 -21.262 -41.165  1.00  0.00     0.159 C 
BRANCH   6   7
ATOM      7  C   UNL     1      -3.905 -20.918 -41.971  1.00  0.00     0.015 C 
ATOM      8  C   UNL     1      -4.880 -20.089 -41.152  1.00  0.00     0.005 C 
ENDBRANCH   6   7
ENDBRANCH   3   6
ENDBRANCH   1   3
BRANCH   1   9
ATOM      9  C   UNL     1       0.788 -19.149 -41.143  1.00  0.00     0.085 A 
ATOM     10  C   UNL     1       0.642 -17.819 -41.542  1.00  0.00     0.033 A 
ATOM     11  C   UNL     1       2.064 -19.707 -41.015  1.00  0.00     0.161 A 
ATOM     12  C   UNL     1       1.776 -17.058 -41.838  1.00  0.00     0.042 A 
ATOM     13  C   UNL     1       3.190 -18.941 -41.286  1.00  0.00     0.096 A 
ATOM     14  C   UNL     1       3.045 -17.623 -41.707  1.00  0.00     0.137 A 
ATOM     15  F   UNL     1       2.182 -20.985 -40.621  1.00  0.00    -0.204 F 
ATOM     16  F   UNL     1       4.117 -16.863 -41.966  1.00  0.00    -0.206 F 
BRANCH  13  17
ATOM     17  C   UNL     1       4.526 -19.515 -41.143  1.00  0.00     0.201 C 
ATOM     18  O   UNL     1       5.025 -19.531 -40.021  1.00  0.00    -0.288 OA
BRANCH  17  19
ATOM     19  C   UNL     1       5.201 -20.040 -42.328  1.00  0.00     0.050 A 
ATOM     20  C   UNL     1       4.934 -21.236 -42.983  1.00  0.00     0.097 A 
ATOM     21  C   UNL     1       6.283 -19.423 -43.041  1.00  0.00     0.031 A 
ATOM     22  N   UNL     1       5.789 -21.349 -44.051  1.00  0.00    -0.345 N 
ATOM     23  C   UNL     1       7.025 -18.232 -42.911  1.00  0.00     0.035 A 
ATOM     24  C   UNL     1       6.615 -20.264 -44.099  1.00  0.00     0.138 A 
ATOM     25  C   UNL     1       8.030 -17.993 -43.846  1.00  0.00     0.060 A 
ATOM     26  N   UNL     1       7.573 -20.083 -45.028  1.00  0.00    -0.237 NA
ATOM     27  C   UNL     1       8.255 -18.923 -44.854  1.00  0.00     0.134 A 
ATOM     28  H   UNL     1       5.823 -22.109 -44.716  1.00  0.00     0.167 HD
ATOM     29  Cl  UNL     1       8.978 -16.562 -43.750  1.00  0.00    -0.083 Cl
ENDBRANCH  17  19
ENDBRANCH  13  17
ENDBRANCH   1   9
TORSDOF 6
ENDMDL
MODEL 7
REMARK VINA RESULT:    -7.197      6.060      7.314
REMARK INTER + INTRA:         -10.831
REMARK INTER:                  -9.557
REMARK INTRA:                  -1.274
REMARK UNBOUND:                -1.110
REMARK SMILES CCCS(=O)(=O)Nc1ccc(F)c(C(=O)c2c[nH]c3ncc(Cl)cc23)c1F
REMARK SMILES IDX 7 1 4 3 5 4 6 5 3 6 2 7 1 8 8 9 9 10 26 11 10 12 13 13 11 14
REMARK SMILES IDX 27 15 12 16 14 17 15 18 16 19 17 20 25 21 18 22 24 23 19 24
REMARK SMILES IDX 22 25 20 26 21 27 23 29
REMARK H PARENT 7 2 18 28
ROOT
ATOM      1  N   UNL     1       2.680  -8.330 -45.247  1.00  0.00    -0.281 N 
ATOM      2  H   UNL     1       2.813  -8.318 -46.265  1.00  0.00     0.180 HD
ENDROOT
BRANCH   1   3
ATOM      3  S   UNL     1       1.740  -9.705 -44.894  1.00  0.00     0.232 S 
ATOM      4  O   UNL     1       1.800  -9.974 -43.473  1.00  0.00    -0.207 OA
ATOM      5  O   UNL     1       2.128 -10.703 -45.866  1.00  0.00    -0.207 OA
BRANCH   3   6
ATOM      6  C   UNL     1       0.094  -9.132 -45.298  1.00  0.00     0.159 C 
BRANCH   6   7
ATOM      7  C   UNL     1      -0.852 -10.258 -45.694  1.00  0.00     0.015 C 
ATOM      8  C   UNL     1      -2.126  -9.713 -46.318  1.00  0.00     0.005 C 
ENDBRANCH   6   7
ENDBRANCH   3   6
ENDBRANCH   1   3
BRANCH   1   9
ATOM      9  C   UNL     1       3.909  -8.233 -44.517  1.00  0.00     0.085 A 
ATOM     10  C   UNL     1       3.930  -7.569 -43.289  1.00  0.00     0.033 A 
ATOM     11  C   UNL     1       5.044  -8.918 -44.963  1.00  0.00     0.161 A 
ATOM     12  C   UNL     1       5.098  -7.570 -42.522  1.00  0.00     0.042 A 
ATOM     13  C   UNL     1       6.195  -8.938 -44.187  1.00  0.00     0.096 A 
ATOM     14  C   UNL     1       6.224  -8.257 -42.975  1.00  0.00     0.137 A 
ATOM     15  F   UNL     1       5.000  -9.557 -46.143  1.00  0.00    -0.204 F 
ATOM     16  F   UNL     1       7.321  -8.270 -42.206  1.00  0.00    -0.206 F 
BRANCH  13  17
ATOM     17  C   UNL     1       7.381  -9.662 -44.643  1.00  0.00     0.201 C 
ATOM     18  O   UNL     1       8.309  -9.005 -45.106  1.00  0.00    -0.288 OA
BRANCH  17  19
ATOM     19  C   UNL     1       7.409 -11.118 -44.526  1.00  0.00     0.050 A 
ATOM     20  C   UNL     1       7.429 -12.041 -45.564  1.00  0.00     0.097 A 
ATOM     21  C   UNL     1       7.410 -11.879 -43.309  1.00  0.00     0.031 A 
ATOM     22  N   UNL     1       7.457 -13.304 -45.025  1.00  0.00    -0.345 N 
ATOM     23  C   UNL     1       7.391 -11.578 -41.933  1.00  0.00     0.035 A 
ATOM     24  C   UNL     1       7.441 -13.224 -43.662  1.00  0.00     0.138 A 
ATOM     25  C   UNL     1       7.403 -12.646 -41.038  1.00  0.00     0.060 A 
ATOM     26  N   UNL     1       7.454 -14.293 -42.844  1.00  0.00    -0.237 NA
ATOM     27  C   UNL     1       7.434 -13.945 -41.533  1.00  0.00     0.134 A 
ATOM     28  H   UNL     1       7.485 -14.174 -45.536  1.00  0.00     0.167 HD
ATOM     29  Cl  UNL     1       7.379 -12.356 -39.344  1.00  0.00    -0.083 Cl
ENDBRANCH  17  19
ENDBRANCH  13  17
ENDBRANCH   1   9
TORSDOF 6
ENDMDL
MODEL 8
REMARK VINA RESULT:    -7.165      4.823      6.883
REMARK INTER + INTRA:         -10.787
REMARK INTER:                  -9.434
REMARK INTRA:                  -1.353
REMARK UNBOUND:                -1.110
REMARK SMILES CCCS(=O)(=O)Nc1ccc(F)c(C(=O)c2c[nH]c3ncc(Cl)cc23)c1F
REMARK SMILES IDX 7 1 4 3 5 4 6 5 3 6 2 7 1 8 8 9 9 10 26 11 10 12 13 13 11 14
REMARK SMILES IDX 27 15 12 16 14 17 15 18 16 19 17 20 25 21 18 22 24 23 19 24
REMARK SMILES IDX 22 25 20 26 21 27 23 29
REMARK H PARENT 7 2 18 28
ROOT
ATOM      1  N   UNL     1       5.647  -8.231 -46.279  1.00  0.00    -0.281 N 
ATOM      2  H   UNL     1       5.795  -7.704 -47.148  1.00  0.00     0.180 HD
ENDROOT
BRANCH   1   3
ATOM      3  S   UNL     1       6.976  -7.891 -45.271  1.00  0.00     0.232 S 
ATOM      4  O   UNL     1       7.029  -6.469 -45.011  1.00  0.00    -0.207 OA
ATOM      5  O   UNL     1       8.099  -8.591 -45.856  1.00  0.00    -0.207 OA
BRANCH   3   6
ATOM      6  C   UNL     1       6.510  -8.732 -43.762  1.00  0.00     0.159 C 
BRANCH   6   7
ATOM      7  C   UNL     1       6.389  -7.795 -42.567  1.00  0.00     0.015 C 
ATOM      8  C   UNL     1       4.933  -7.538 -42.215  1.00  0.00     0.005 C 
ENDBRANCH   6   7
ENDBRANCH   3   6
ENDBRANCH   1   3
BRANCH   1   9
ATOM      9  C   UNL     1       4.364  -7.996 -45.688  1.00  0.00     0.085 A 
ATOM     10  C   UNL     1       3.828  -6.706 -45.696  1.00  0.00     0.033 A 
ATOM     11  C   UNL     1       3.595  -9.072 -45.231  1.00  0.00     0.161 A 
ATOM     12  C   UNL     1       2.531  -6.494 -45.221  1.00  0.00     0.042 A 
ATOM     13  C   UNL     1       2.298  -8.861 -44.784  1.00  0.00     0.096 A 
ATOM     14  C   UNL     1       1.772  -7.573 -44.769  1.00  0.00     0.137 A 
ATOM     15  F   UNL     1       4.126 -10.304 -45.240  1.00  0.00    -0.204 F 
ATOM     16  F   UNL     1       0.520  -7.347 -44.350  1.00  0.00    -0.206 F 
BRANCH  13  17
ATOM     17  C   UNL     1       1.486  -9.982 -44.317  1.00  0.00     0.201 C 
ATOM     18  O   UNL     1       1.500 -10.238 -43.115  1.00  0.00    -0.288 OA
BRANCH  17  19
ATOM     19  C   UNL     1       0.701 -10.740 -45.289  1.00  0.00     0.050 A 
ATOM     20  C   UNL     1       1.043 -11.949 -45.882  1.00  0.00     0.097 A 
ATOM     21  C   UNL     1      -0.577 -10.374 -45.829  1.00  0.00     0.031 A 
ATOM     22  N   UNL     1       0.030 -12.321 -46.730  1.00  0.00    -0.345 N 
ATOM     23  C   UNL     1      -1.468  -9.294 -45.665  1.00  0.00     0.035 A 
ATOM     24  C   UNL     1      -0.956 -11.378 -46.714  1.00  0.00     0.138 A 
ATOM     25  C   UNL     1      -2.652  -9.317 -46.399  1.00  0.00     0.060 A 
ATOM     26  N   UNL     1      -2.083 -11.450 -47.447  1.00  0.00    -0.237 NA
ATOM     27  C   UNL     1      -2.902 -10.387 -47.250  1.00  0.00     0.134 A 
ATOM     28  H   UNL     1      -0.006 -13.160 -47.292  1.00  0.00     0.167 HD
ATOM     29  Cl  UNL     1      -3.786  -8.033 -46.252  1.00  0.00    -0.083 Cl
ENDBRANCH  17  19
ENDBRANCH  13  17
ENDBRANCH   1   9
TORSDOF 6
ENDMDL
MODEL 9
REMARK VINA RESULT:    -7.157      6.997      9.383
REMARK INTER + INTRA:         -10.777
REMARK INTER:                  -9.747
REMARK INTRA:                  -1.030
REMARK UNBOUND:                -1.110
REMARK SMILES CCCS(=O)(=O)Nc1ccc(F)c(C(=O)c2c[nH]c3ncc(Cl)cc23)c1F
REMARK SMILES IDX 7 1 4 3 5 4 6 5 3 6 2 7 1 8 8 9 9 10 26 11 10 12 13 13 11 14
REMARK SMILES IDX 27 15 12 16 14 17 15 18 16 19 17 20 25 21 18 22 24 23 19 24
REMARK SMILES IDX 22 25 20 26 21 27 23 29
REMARK H PARENT 7 2 18 28
ROOT
ATOM      1  N   UNL     1      -0.031 -15.327 -43.440  1.00  0.00    -0.281 N 
ATOM      2  H   UNL     1       0.819 -14.940 -43.012  1.00  0.00     0.180 HD
ENDROOT
BRANCH   1   3
ATOM      3  S   UNL     1       0.220 -15.309 -45.124  1.00  0.00     0.232 S 
ATOM      4  O   UNL     1      -0.289 -14.070 -45.671  1.00  0.00    -0.207 OA
ATOM      5  O   UNL     1      -0.248 -16.591 -45.602  1.00  0.00    -0.207 OA
BRANCH   3   6
ATOM      6  C   UNL     1       2.007 -15.287 -45.223  1.00  0.00     0.159 C 
BRANCH   6   7
ATOM      7  C   UNL     1       2.665 -14.613 -44.027  1.00  0.00     0.015 C 
ATOM      8  C   UNL     1       3.817 -15.447 -43.490  1.00  0.00     0.005 C 
ENDBRANCH   6   7
ENDBRANCH   3   6
ENDBRANCH   1   3
BRANCH   1   9
ATOM      9  C   UNL     1      -0.405 -16.600 -42.898  1.00  0.00     0.085 A 
ATOM     10  C   UNL     1      -1.579 -17.216 -43.338  1.00  0.00     0.033 A 
ATOM     11  C   UNL     1       0.467 -17.280 -42.042  1.00  0.00     0.161 A 
ATOM     12  C   UNL     1      -1.889 -18.505 -42.897  1.00  0.00     0.042 A 
ATOM     13  C   UNL     1       0.168 -18.571 -41.626  1.00  0.00     0.096 A 
ATOM     14  C   UNL     1      -1.013 -19.177 -42.044  1.00  0.00     0.137 A 
ATOM     15  F   UNL     1       1.594 -16.673 -41.640  1.00  0.00    -0.204 F 
ATOM     16  F   UNL     1      -1.317 -20.423 -41.662  1.00  0.00    -0.206 F 
BRANCH  13  17
ATOM     17  C   UNL     1       1.081 -19.292 -40.741  1.00  0.00     0.201 C 
ATOM     18  O   UNL     1       0.759 -19.411 -39.562  1.00  0.00    -0.288 OA
BRANCH  17  19
ATOM     19  C   UNL     1       2.319 -19.834 -41.293  1.00  0.00     0.050 A 
ATOM     20  C   UNL     1       2.455 -20.954 -42.104  1.00  0.00     0.097 A 
ATOM     21  C   UNL     1       3.644 -19.318 -41.095  1.00  0.00     0.031 A 
ATOM     22  N   UNL     1       3.785 -21.116 -42.406  1.00  0.00    -0.345 N 
ATOM     23  C   UNL     1       4.207 -18.235 -40.392  1.00  0.00     0.035 A 
ATOM     24  C   UNL     1       4.519 -20.139 -41.800  1.00  0.00     0.138 A 
ATOM     25  C   UNL     1       5.589 -18.072 -40.456  1.00  0.00     0.060 A 
ATOM     26  N   UNL     1       5.857 -20.029 -41.896  1.00  0.00    -0.237 NA
ATOM     27  C   UNL     1       6.344 -18.971 -41.201  1.00  0.00     0.134 A 
ATOM     28  H   UNL     1       4.185 -21.841 -42.986  1.00  0.00     0.167 HD
ATOM     29  Cl  UNL     1       6.348 -16.774 -39.623  1.00  0.00    -0.083 Cl
ENDBRANCH  17  19
ENDBRANCH  13  17
ENDBRANCH   1   9
TORSDOF 6
ENDMDL
MODEL 10
REMARK VINA RESULT:    -7.123      4.487      6.337
REMARK INTER + INTRA:         -10.731
REMARK INTER:                  -9.901
REMARK INTRA:                  -0.829
REMARK UNBOUND:                -1.110
REMARK SMILES CCCS(=O)(=O)Nc1ccc(F)c(C(=O)c2c[nH]c3ncc(Cl)cc23)c1F
REMARK SMILES IDX 7 1 4 3 5 4 6 5 3 6 2 7 1 8 8 9 9 10 26 11 10 12 13 13 11 14
REMARK SMILES IDX 27 15 12 16 14 17 15 18 16 19 17 20 25 21 18 22 24 23 19 24
REMARK SMILES IDX 22 25 20 26 21 27 23 29
REMARK H PARENT 7 2 18 28
ROOT
ATOM      1  N   UNL     1       1.844 -12.283 -44.315  1.00  0.00    -0.281 N 
ATOM      2  H   UNL     1       2.615 -11.968 -44.916  1.00  0.00     0.180 HD
ENDROOT
BRANCH   1   3
ATOM      3  S   UNL     1       0.846 -10.929 -44.053  1.00  0.00     0.232 S 
ATOM      4  O   UNL     1       0.990 -10.485 -42.683  1.00  0.00    -0.207 OA
ATOM      5  O   UNL     1      -0.446 -11.285 -44.596  1.00  0.00    -0.207 OA
BRANCH   3   6
ATOM      6  C   UNL     1       1.596  -9.712 -45.130  1.00  0.00     0.159 C 
BRANCH   6   7
ATOM      7  C   UNL     1       2.969 -10.131 -45.641  1.00  0.00     0.015 C 
ATOM      8  C   UNL     1       3.787  -8.924 -46.072  1.00  0.00     0.005 C 
ENDBRANCH   6   7
ENDBRANCH   3   6
ENDBRANCH   1   3
BRANCH   1   9
ATOM      9  C   UNL     1       1.171 -13.442 -44.820  1.00  0.00     0.085 A 
ATOM     10  C   UNL     1       1.322 -13.795 -46.163  1.00  0.00     0.033 A 
ATOM     11  C   UNL     1       0.481 -14.288 -43.945  1.00  0.00     0.161 A 
ATOM     12  C   UNL     1       0.759 -14.985 -46.632  1.00  0.00     0.042 A 
ATOM     13  C   UNL     1      -0.056 -15.482 -44.409  1.00  0.00     0.096 A 
ATOM     14  C   UNL     1       0.074 -15.823 -45.752  1.00  0.00     0.137 A 
ATOM     15  F   UNL     1       0.356 -13.934 -42.657  1.00  0.00    -0.204 F 
ATOM     16  F   UNL     1      -0.428 -16.973 -46.219  1.00  0.00    -0.206 F 
BRANCH  13  17
ATOM     17  C   UNL     1      -0.766 -16.376 -43.498  1.00  0.00     0.201 C 
ATOM     18  O   UNL     1      -1.994 -16.330 -43.493  1.00  0.00    -0.288 OA
BRANCH  17  19
ATOM     19  C   UNL     1       0.006 -17.275 -42.644  1.00  0.00     0.050 A 
ATOM     20  C   UNL     1       1.288 -17.066 -42.150  1.00  0.00     0.097 A 
ATOM     21  C   UNL     1      -0.408 -18.560 -42.157  1.00  0.00     0.031 A 
ATOM     22  N   UNL     1       1.644 -18.150 -41.387  1.00  0.00    -0.345 N 
ATOM     23  C   UNL     1      -1.561 -19.360 -42.283  1.00  0.00     0.035 A 
ATOM     24  C   UNL     1       0.632 -19.066 -41.384  1.00  0.00     0.138 A 
ATOM     25  C   UNL     1      -1.568 -20.590 -41.627  1.00  0.00     0.060 A 
ATOM     26  N   UNL     1       0.680 -20.242 -40.732  1.00  0.00    -0.237 NA
ATOM     27  C   UNL     1      -0.454 -20.970 -40.887  1.00  0.00     0.134 A 
ATOM     28  H   UNL     1       2.516 -18.277 -40.893  1.00  0.00     0.167 HD
ATOM     29  Cl  UNL     1      -2.939 -21.620 -41.736  1.00  0.00    -0.083 Cl
ENDBRANCH  17  19
ENDBRANCH  13  17
ENDBRANCH   1   9
TORSDOF 6
ENDMDL
MODEL 11
REMARK VINA RESULT:    -7.120      5.586      8.334
REMARK INTER + INTRA:         -10.727
REMARK INTER:                  -9.377
REMARK INTRA:                  -1.350
REMARK UNBOUND:                -1.110
REMARK SMILES CCCS(=O)(=O)Nc1ccc(F)c(C(=O)c2c[nH]c3ncc(Cl)cc23)c1F
REMARK SMILES IDX 7 1 4 3 5 4 6 5 3 6 2 7 1 8 8 9 9 10 26 11 10 12 13 13 11 14
REMARK SMILES IDX 27 15 12 16 14 17 15 18 16 19 17 20 25 21 18 22 24 23 19 24
REMARK SMILES IDX 22 25 20 26 21 27 23 29
REMARK H PARENT 7 2 18 28
ROOT
ATOM      1  N   UNL     1       8.098 -11.313 -44.016  1.00  0.00    -0.281 N 
ATOM      2  H   UNL     1       9.013 -10.944 -43.730  1.00  0.00     0.180 HD
ENDROOT
BRANCH   1   3
ATOM      3  S   UNL     1       7.800 -12.681 -43.047  1.00  0.00     0.232 S 
ATOM      4  O   UNL     1       8.579 -13.797 -43.540  1.00  0.00    -0.207 OA
ATOM      5  O   UNL     1       6.362 -12.765 -42.921  1.00  0.00    -0.207 OA
BRANCH   3   6
ATOM      6  C   UNL     1       8.477 -12.164 -41.473  1.00  0.00     0.159 C 
BRANCH   6   7
ATOM      7  C   UNL     1       7.438 -12.119 -40.360  1.00  0.00     0.015 C 
ATOM      8  C   UNL     1       7.708 -13.185 -39.311  1.00  0.00     0.005 C 
ENDBRANCH   6   7
ENDBRANCH   3   6
ENDBRANCH   1   3
BRANCH   1   9
ATOM      9  C   UNL     1       7.061 -10.325 -44.003  1.00  0.00     0.085 A 
ATOM     10  C   UNL     1       7.166  -9.228 -43.146  1.00  0.00     0.033 A 
ATOM     11  C   UNL     1       6.022 -10.389 -44.937  1.00  0.00     0.161 A 
ATOM     12  C   UNL     1       6.214  -8.207 -43.210  1.00  0.00     0.042 A 
ATOM     13  C   UNL     1       5.092  -9.361 -45.015  1.00  0.00     0.096 A 
ATOM     14  C   UNL     1       5.183  -8.278 -44.146  1.00  0.00     0.137 A 
ATOM     15  F   UNL     1       5.944 -11.449 -45.757  1.00  0.00    -0.204 F 
ATOM     16  F   UNL     1       4.302  -7.271 -44.210  1.00  0.00    -0.206 F 
BRANCH  13  17
ATOM     17  C   UNL     1       4.011  -9.415 -45.997  1.00  0.00     0.201 C 
ATOM     18  O   UNL     1       4.266  -9.069 -47.148  1.00  0.00    -0.288 OA
BRANCH  17  19
ATOM     19  C   UNL     1       2.691  -9.876 -45.572  1.00  0.00     0.050 A 
ATOM     20  C   UNL     1       1.621  -9.089 -45.163  1.00  0.00     0.097 A 
ATOM     21  C   UNL     1       2.247 -11.237 -45.484  1.00  0.00     0.031 A 
ATOM     22  N   UNL     1       0.567  -9.913 -44.854  1.00  0.00    -0.345 N 
ATOM     23  C   UNL     1       2.818 -12.501 -45.737  1.00  0.00     0.035 A 
ATOM     24  C   UNL     1       0.930 -11.216 -45.038  1.00  0.00     0.138 A 
ATOM     25  C   UNL     1       2.022 -13.624 -45.520  1.00  0.00     0.060 A 
ATOM     26  N   UNL     1       0.117 -12.265 -44.811  1.00  0.00    -0.237 NA
ATOM     27  C   UNL     1       0.717 -13.454 -45.070  1.00  0.00     0.134 A 
ATOM     28  H   UNL     1      -0.348  -9.625 -44.537  1.00  0.00     0.167 HD
ATOM     29  Cl  UNL     1       2.650 -15.198 -45.805  1.00  0.00    -0.083 Cl
ENDBRANCH  17  19
ENDBRANCH  13  17
ENDBRANCH   1   9
TORSDOF 6
ENDMDL
MODEL 12
REMARK VINA RESULT:    -7.095      9.206     11.966
REMARK INTER + INTRA:         -10.693
REMARK INTER:                  -9.348
REMARK INTRA:                  -1.345
REMARK UNBOUND:                -1.110
REMARK SMILES CCCS(=O)(=O)Nc1ccc(F)c(C(=O)c2c[nH]c3ncc(Cl)cc23)c1F
REMARK SMILES IDX 7 1 4 3 5 4 6 5 3 6 2 7 1 8 8 9 9 10 26 11 10 12 13 13 11 14
REMARK SMILES IDX 27 15 12 16 14 17 15 18 16 19 17 20 25 21 18 22 24 23 19 24
REMARK SMILES IDX 22 25 20 26 21 27 23 29
REMARK H PARENT 7 2 18 28
ROOT
ATOM      1  N   UNL     1       6.789 -17.744 -43.062  1.00  0.00    -0.281 N 
ATOM      2  H   UNL     1       6.502 -16.766 -43.186  1.00  0.00     0.180 HD
ENDROOT
BRANCH   1   3
ATOM      3  S   UNL     1       8.038 -17.741 -41.904  1.00  0.00     0.232 S 
ATOM      4  O   UNL     1       7.561 -18.356 -40.683  1.00  0.00    -0.207 OA
ATOM      5  O   UNL     1       8.573 -16.398 -41.910  1.00  0.00    -0.207 OA
BRANCH   3   6
ATOM      6  C   UNL     1       9.237 -18.831 -42.663  1.00  0.00     0.159 C 
BRANCH   6   7
ATOM      7  C   UNL     1       9.685 -19.961 -41.745  1.00  0.00     0.015 C 
ATOM      8  C   UNL     1       9.057 -21.283 -42.152  1.00  0.00     0.005 C 
ENDBRANCH   6   7
ENDBRANCH   3   6
ENDBRANCH   1   3
BRANCH   1   9
ATOM      9  C   UNL     1       5.695 -18.621 -42.768  1.00  0.00     0.085 A 
ATOM     10  C   UNL     1       5.759 -19.958 -43.165  1.00  0.00     0.033 A 
ATOM     11  C   UNL     1       4.636 -18.175 -41.971  1.00  0.00     0.161 A 
ATOM     12  C   UNL     1       4.746 -20.842 -42.783  1.00  0.00     0.042 A 
ATOM     13  C   UNL     1       3.643 -19.062 -41.572  1.00  0.00     0.096 A 
ATOM     14  C   UNL     1       3.694 -20.389 -41.987  1.00  0.00     0.137 A 
ATOM     15  F   UNL     1       4.598 -16.888 -41.594  1.00  0.00    -0.204 F 
ATOM     16  F   UNL     1       2.753 -21.262 -41.607  1.00  0.00    -0.206 F 
BRANCH  13  17
ATOM     17  C   UNL     1       2.540 -18.605 -40.729  1.00  0.00     0.201 C 
ATOM     18  O   UNL     1       2.715 -18.596 -39.514  1.00  0.00    -0.288 OA
BRANCH  17  19
ATOM     19  C   UNL     1       1.294 -18.183 -41.363  1.00  0.00     0.050 A 
ATOM     20  C   UNL     1       1.011 -16.935 -41.905  1.00  0.00     0.097 A 
ATOM     21  C   UNL     1       0.111 -18.976 -41.539  1.00  0.00     0.031 A 
ATOM     22  N   UNL     1      -0.268 -16.956 -42.405  1.00  0.00    -0.345 N 
ATOM     23  C   UNL     1      -0.274 -20.294 -41.222  1.00  0.00     0.035 A 
ATOM     24  C   UNL     1      -0.829 -18.181 -42.187  1.00  0.00     0.138 A 
ATOM     25  C   UNL     1      -1.560 -20.694 -41.579  1.00  0.00     0.060 A 
ATOM     26  N   UNL     1      -2.080 -18.514 -42.554  1.00  0.00    -0.237 NA
ATOM     27  C   UNL     1      -2.397 -19.791 -42.224  1.00  0.00     0.134 A 
ATOM     28  H   UNL     1      -0.745 -16.194 -42.866  1.00  0.00     0.167 HD
ATOM     29  Cl  UNL     1      -2.100 -22.287 -41.223  1.00  0.00    -0.083 Cl
ENDBRANCH  17  19
ENDBRANCH  13  17
ENDBRANCH   1   9
TORSDOF 6
ENDMDL
MODEL 13
REMARK VINA RESULT:    -7.076      3.959      5.180
REMARK INTER + INTRA:         -10.668
REMARK INTER:                  -9.531
REMARK INTRA:                  -1.137
REMARK UNBOUND:                -1.110
REMARK SMILES CCCS(=O)(=O)Nc1ccc(F)c(C(=O)c2c[nH]c3ncc(Cl)cc23)c1F
REMARK SMILES IDX 7 1 4 3 5 4 6 5 3 6 2 7 1 8 8 9 9 10 26 11 10 12 13 13 11 14
REMARK SMILES IDX 27 15 12 16 14 17 15 18 16 19 17 20 25 21 18 22 24 23 19 24
REMARK SMILES IDX 22 25 20 26 21 27 23 29
REMARK H PARENT 7 2 18 28
ROOT
ATOM      1  N   UNL     1      -2.971  -6.902 -45.950  1.00  0.00    -0.281 N 
ATOM      2  H   UNL     1      -3.155  -6.605 -46.915  1.00  0.00     0.180 HD
ENDROOT
BRANCH   1   3
ATOM      3  S   UNL     1      -4.421  -6.675 -45.086  1.00  0.00     0.232 S 
ATOM      4  O   UNL     1      -5.506  -7.323 -45.791  1.00  0.00    -0.207 OA
ATOM      5  O   UNL     1      -4.467  -5.266 -44.765  1.00  0.00    -0.207 OA
BRANCH   3   6
ATOM      6  C   UNL     1      -4.092  -7.586 -43.581  1.00  0.00     0.159 C 
BRANCH   6   7
ATOM      7  C   UNL     1      -5.321  -7.744 -42.695  1.00  0.00     0.015 C 
ATOM      8  C   UNL     1      -5.844  -9.170 -42.727  1.00  0.00     0.005 C 
ENDBRANCH   6   7
ENDBRANCH   3   6
ENDBRANCH   1   3
BRANCH   1   9
ATOM      9  C   UNL     1      -2.415  -8.219 -45.861  1.00  0.00     0.085 A 
ATOM     10  C   UNL     1      -2.916  -9.235 -46.678  1.00  0.00     0.033 A 
ATOM     11  C   UNL     1      -1.289  -8.451 -45.064  1.00  0.00     0.161 A 
ATOM     12  C   UNL     1      -2.302 -10.490 -46.675  1.00  0.00     0.042 A 
ATOM     13  C   UNL     1      -0.667  -9.692 -45.082  1.00  0.00     0.096 A 
ATOM     14  C   UNL     1      -1.179 -10.712 -45.878  1.00  0.00     0.137 A 
ATOM     15  F   UNL     1      -0.819  -7.459 -44.292  1.00  0.00    -0.204 F 
ATOM     16  F   UNL     1      -0.590 -11.914 -45.917  1.00  0.00    -0.206 F 
BRANCH  13  17
ATOM     17  C   UNL     1       0.517  -9.937 -44.260  1.00  0.00     0.201 C 
ATOM     18  O   UNL     1       0.343 -10.283 -43.095  1.00  0.00    -0.288 OA
BRANCH  17  19
ATOM     19  C   UNL     1       1.839  -9.764 -44.856  1.00  0.00     0.050 A 
ATOM     20  C   UNL     1       2.638 -10.749 -45.423  1.00  0.00     0.097 A 
ATOM     21  C   UNL     1       2.577  -8.537 -44.961  1.00  0.00     0.031 A 
ATOM     22  N   UNL     1       3.799 -10.167 -45.870  1.00  0.00    -0.345 N 
ATOM     23  C   UNL     1       2.358  -7.196 -44.589  1.00  0.00     0.035 A 
ATOM     24  C   UNL     1       3.781  -8.830 -45.594  1.00  0.00     0.138 A 
ATOM     25  C   UNL     1       3.360  -6.273 -44.882  1.00  0.00     0.060 A 
ATOM     26  N   UNL     1       4.780  -7.982 -45.900  1.00  0.00    -0.237 NA
ATOM     27  C   UNL     1       4.517  -6.707 -45.520  1.00  0.00     0.134 A 
ATOM     28  H   UNL     1       4.565 -10.633 -46.335  1.00  0.00     0.167 HD
ATOM     29  Cl  UNL     1       3.165  -4.619 -44.458  1.00  0.00    -0.083 Cl
ENDBRANCH  17  19
ENDBRANCH  13  17
ENDBRANCH   1   9
TORSDOF 6
ENDMDL
MODEL 14
REMARK VINA RESULT:    -6.985      3.729      5.499
REMARK INTER + INTRA:         -10.544
REMARK INTER:                  -9.502
REMARK INTRA:                  -1.042
REMARK UNBOUND:                -1.110
REMARK SMILES CCCS(=O)(=O)Nc1ccc(F)c(C(=O)c2c[nH]c3ncc(Cl)cc23)c1F
REMARK SMILES IDX 7 1 4 3 5 4 6 5 3 6 2 7 1 8 8 9 9 10 26 11 10 12 13 13 11 14
REMARK SMILES IDX 27 15 12 16 14 17 15 18 16 19 17 20 25 21 18 22 24 23 19 24
REMARK SMILES IDX 22 25 20 26 21 27 23 29
REMARK H PARENT 7 2 18 28
ROOT
ATOM      1  N   UNL     1       2.753  -6.944 -45.063  1.00  0.00    -0.281 N 
ATOM      2  H   UNL     1       3.004  -6.159 -45.675  1.00  0.00     0.180 HD
ENDROOT
BRANCH   1   3
ATOM      3  S   UNL     1       3.742  -6.821 -43.682  1.00  0.00     0.232 S 
ATOM      4  O   UNL     1       3.547  -7.986 -42.847  1.00  0.00    -0.207 OA
ATOM      5  O   UNL     1       3.533  -5.484 -43.170  1.00  0.00    -0.207 OA
BRANCH   3   6
ATOM      6  C   UNL     1       5.379  -6.900 -44.401  1.00  0.00     0.159 C 
BRANCH   6   7
ATOM      7  C   UNL     1       6.315  -7.843 -43.657  1.00  0.00     0.015 C 
ATOM      8  C   UNL     1       7.623  -8.027 -44.409  1.00  0.00     0.005 C 
ENDBRANCH   6   7
ENDBRANCH   3   6
ENDBRANCH   1   3
BRANCH   1   9
ATOM      9  C   UNL     1       1.348  -7.023 -44.794  1.00  0.00     0.085 A 
ATOM     10  C   UNL     1       0.574  -5.862 -44.830  1.00  0.00     0.033 A 
ATOM     11  C   UNL     1       0.735  -8.271 -44.636  1.00  0.00     0.161 A 
ATOM     12  C   UNL     1      -0.813  -5.951 -44.681  1.00  0.00     0.042 A 
ATOM     13  C   UNL     1      -0.646  -8.358 -44.513  1.00  0.00     0.096 A 
ATOM     14  C   UNL     1      -1.415  -7.199 -44.524  1.00  0.00     0.137 A 
ATOM     15  F   UNL     1       1.497  -9.375 -44.614  1.00  0.00    -0.204 F 
ATOM     16  F   UNL     1      -2.749  -7.260 -44.416  1.00  0.00    -0.206 F 
BRANCH  13  17
ATOM     17  C   UNL     1      -1.293  -9.659 -44.359  1.00  0.00     0.201 C 
ATOM     18  O   UNL     1      -1.793  -9.924 -43.269  1.00  0.00    -0.288 OA
BRANCH  17  19
ATOM     19  C   UNL     1      -1.319 -10.575 -45.497  1.00  0.00     0.050 A 
ATOM     20  C   UNL     1      -2.174 -10.527 -46.591  1.00  0.00     0.097 A 
ATOM     21  C   UNL     1      -0.468 -11.713 -45.700  1.00  0.00     0.031 A 
ATOM     22  N   UNL     1      -1.862 -11.565 -47.434  1.00  0.00    -0.345 N 
ATOM     23  C   UNL     1       0.586 -12.321 -44.989  1.00  0.00     0.035 A 
ATOM     24  C   UNL     1      -0.837 -12.296 -46.908  1.00  0.00     0.138 A 
ATOM     25  C   UNL     1       1.173 -13.454 -45.549  1.00  0.00     0.060 A 
ATOM     26  N   UNL     1      -0.307 -13.386 -47.494  1.00  0.00    -0.237 NA
ATOM     27  C   UNL     1       0.702 -13.930 -46.768  1.00  0.00     0.134 A 
ATOM     28  H   UNL     1      -2.309 -11.779 -48.314  1.00  0.00     0.167 HD
ATOM     29  Cl  UNL     1       2.463 -14.250 -44.740  1.00  0.00    -0.083 Cl
ENDBRANCH  17  19
ENDBRANCH  13  17
ENDBRANCH   1   9
TORSDOF 6
ENDMDL
MODEL 15
REMARK VINA RESULT:    -6.961      2.689      3.304
REMARK INTER + INTRA:         -10.513
REMARK INTER:                  -9.370
REMARK INTRA:                  -1.142
REMARK UNBOUND:                -1.110
REMARK SMILES CCCS(=O)(=O)Nc1ccc(F)c(C(=O)c2c[nH]c3ncc(Cl)cc23)c1F
REMARK SMILES IDX 7 1 4 3 5 4 6 5 3 6 2 7 1 8 8 9 9 10 26 11 10 12 13 13 11 14
REMARK SMILES IDX 27 15 12 16 14 17 15 18 16 19 17 20 25 21 18 22 24 23 19 24
REMARK SMILES IDX 22 25 20 26 21 27 23 29
REMARK H PARENT 7 2 18 28
ROOT
ATOM      1  N   UNL     1      -1.934  -9.151 -43.136  1.00  0.00    -0.281 N 
ATOM      2  H   UNL     1      -1.994  -8.237 -42.672  1.00  0.00     0.180 HD
ENDROOT
BRANCH   1   3
ATOM      3  S   UNL     1      -3.412  -9.383 -43.948  1.00  0.00     0.232 S 
ATOM      4  O   UNL     1      -3.445 -10.714 -44.514  1.00  0.00    -0.207 OA
ATOM      5  O   UNL     1      -3.593  -8.209 -44.774  1.00  0.00    -0.207 OA
BRANCH   3   6
ATOM      6  C   UNL     1      -4.583  -9.307 -42.596  1.00  0.00     0.159 C 
BRANCH   6   7
ATOM      7  C   UNL     1      -5.884  -8.608 -42.968  1.00  0.00     0.015 C 
ATOM      8  C   UNL     1      -5.933  -7.199 -42.402  1.00  0.00     0.005 C 
ENDBRANCH   6   7
ENDBRANCH   3   6
ENDBRANCH   1   3
BRANCH   1   9
ATOM      9  C   UNL     1      -0.766  -9.292 -43.954  1.00  0.00     0.085 A 
ATOM     10  C   UNL     1      -0.198  -8.162 -44.545  1.00  0.00     0.033 A 
ATOM     11  C   UNL     1      -0.123 -10.531 -44.047  1.00  0.00     0.161 A 
ATOM     12  C   UNL     1       1.003  -8.280 -45.250  1.00  0.00     0.042 A 
ATOM     13  C   UNL     1       1.083 -10.640 -44.727  1.00  0.00     0.096 A 
ATOM     14  C   UNL     1       1.638  -9.519 -45.335  1.00  0.00     0.137 A 
ATOM     15  F   UNL     1      -0.682 -11.603 -43.464  1.00  0.00    -0.204 F 
ATOM     16  F   UNL     1       2.804  -9.599 -45.989  1.00  0.00    -0.206 F 
BRANCH  13  17
ATOM     17  C   UNL     1       1.767 -11.929 -44.816  1.00  0.00     0.201 C 
ATOM     18  O   UNL     1       2.832 -12.054 -44.218  1.00  0.00    -0.288 OA
BRANCH  17  19
ATOM     19  C   UNL     1       1.158 -12.999 -45.603  1.00  0.00     0.050 A 
ATOM     20  C   UNL     1       0.975 -13.025 -46.980  1.00  0.00     0.097 A 
ATOM     21  C   UNL     1       0.619 -14.230 -45.102  1.00  0.00     0.031 A 
ATOM     22  N   UNL     1       0.373 -14.212 -47.318  1.00  0.00    -0.345 N 
ATOM     23  C   UNL     1       0.480 -14.825 -43.832  1.00  0.00     0.035 A 
ATOM     24  C   UNL     1       0.145 -14.951 -46.193  1.00  0.00     0.138 A 
ATOM     25  C   UNL     1      -0.120 -16.081 -43.770  1.00  0.00     0.060 A 
ATOM     26  N   UNL     1      -0.441 -16.162 -46.192  1.00  0.00    -0.237 NA
ATOM     27  C   UNL     1      -0.549 -16.687 -44.945  1.00  0.00     0.134 A 
ATOM     28  H   UNL     1       0.124 -14.516 -48.249  1.00  0.00     0.167 HD
ATOM     29  Cl  UNL     1      -0.325 -16.868 -42.255  1.00  0.00    -0.083 Cl
ENDBRANCH  17  19
ENDBRANCH  13  17
ENDBRANCH   1   9
TORSDOF 6
ENDMDL
MODEL 16
REMARK VINA RESULT:    -6.907      3.742      4.483
REMARK INTER + INTRA:         -10.439
REMARK INTER:                  -9.229
REMARK INTRA:                  -1.210
REMARK UNBOUND:                -1.110
REMARK SMILES CCCS(=O)(=O)Nc1ccc(F)c(C(=O)c2c[nH]c3ncc(Cl)cc23)c1F
REMARK SMILES IDX 7 1 4 3 5 4 6 5 3 6 2 7 1 8 8 9 9 10 26 11 10 12 13 13 11 14
REMARK SMILES IDX 27 15 12 16 14 17 15 18 16 19 17 20 25 21 18 22 24 23 19 24
REMARK SMILES IDX 22 25 20 26 21 27 23 29
REMARK H PARENT 7 2 18 28
ROOT
ATOM      1  N   UNL     1      -1.568 -10.216 -43.232  1.00  0.00    -0.281 N 
ATOM      2  H   UNL     1      -1.501  -9.588 -42.423  1.00  0.00     0.180 HD
ENDROOT
BRANCH   1   3
ATOM      3  S   UNL     1      -3.010  -9.814 -44.044  1.00  0.00     0.232 S 
ATOM      4  O   UNL     1      -3.244 -10.768 -45.106  1.00  0.00    -0.207 OA
ATOM      5  O   UNL     1      -2.924  -8.395 -44.312  1.00  0.00    -0.207 OA
BRANCH   3   6
ATOM      6  C   UNL     1      -4.231 -10.074 -42.762  1.00  0.00     0.159 C 
BRANCH   6   7
ATOM      7  C   UNL     1      -5.631  -9.637 -43.171  1.00  0.00     0.015 C 
ATOM      8  C   UNL     1      -5.962  -8.261 -42.618  1.00  0.00     0.005 C 
ENDBRANCH   6   7
ENDBRANCH   3   6
ENDBRANCH   1   3
BRANCH   1   9
ATOM      9  C   UNL     1      -0.391 -10.209 -44.050  1.00  0.00     0.085 A 
ATOM     10  C   UNL     1       0.311  -9.016 -44.235  1.00  0.00     0.033 A 
ATOM     11  C   UNL     1       0.125 -11.411 -44.544  1.00  0.00     0.161 A 
ATOM     12  C   UNL     1       1.519  -9.027 -44.938  1.00  0.00     0.042 A 
ATOM     13  C   UNL     1       1.337 -11.423 -45.221  1.00  0.00     0.096 A 
ATOM     14  C   UNL     1       2.027 -10.232 -45.426  1.00  0.00     0.137 A 
ATOM     15  F   UNL     1      -0.562 -12.547 -44.347  1.00  0.00    -0.204 F 
ATOM     16  F   UNL     1       3.202 -10.220 -46.068  1.00  0.00    -0.206 F 
BRANCH  13  17
ATOM     17  C   UNL     1       1.888 -12.677 -45.729  1.00  0.00     0.201 C 
ATOM     18  O   UNL     1       1.677 -12.960 -46.905  1.00  0.00    -0.288 OA
BRANCH  17  19
ATOM     19  C   UNL     1       2.658 -13.529 -44.825  1.00  0.00     0.050 A 
ATOM     20  C   UNL     1       2.177 -14.576 -44.048  1.00  0.00     0.097 A 
ATOM     21  C   UNL     1       4.065 -13.441 -44.556  1.00  0.00     0.031 A 
ATOM     22  N   UNL     1       3.226 -15.118 -43.349  1.00  0.00    -0.345 N 
ATOM     23  C   UNL     1       5.123 -12.620 -44.991  1.00  0.00     0.035 A 
ATOM     24  C   UNL     1       4.375 -14.441 -43.640  1.00  0.00     0.138 A 
ATOM     25  C   UNL     1       6.391 -12.871 -44.472  1.00  0.00     0.060 A 
ATOM     26  N   UNL     1       5.577 -14.728 -43.106  1.00  0.00    -0.237 NA
ATOM     27  C   UNL     1       6.557 -13.907 -43.559  1.00  0.00     0.134 A 
ATOM     28  H   UNL     1       3.182 -15.899 -42.709  1.00  0.00     0.167 HD
ATOM     29  Cl  UNL     1       7.732 -11.910 -44.955  1.00  0.00    -0.083 Cl
ENDBRANCH  17  19
ENDBRANCH  13  17
ENDBRANCH   1   9
TORSDOF 6
ENDMDL
MODEL 17
REMARK VINA RESULT:    -6.865      6.002      8.895
REMARK INTER + INTRA:         -10.383
REMARK INTER:                  -8.958
REMARK INTRA:                  -1.425
REMARK UNBOUND:                -1.110
REMARK SMILES CCCS(=O)(=O)Nc1ccc(F)c(C(=O)c2c[nH]c3ncc(Cl)cc23)c1F
REMARK SMILES IDX 7 1 4 3 5 4 6 5 3 6 2 7 1 8 8 9 9 10 26 11 10 12 13 13 11 14
REMARK SMILES IDX 27 15 12 16 14 17 15 18 16 19 17 20 25 21 18 22 24 23 19 24
REMARK SMILES IDX 22 25 20 26 21 27 23 29
REMARK H PARENT 7 2 18 28
ROOT
ATOM      1  N   UNL     1       8.071 -10.925 -43.618  1.00  0.00    -0.281 N 
ATOM      2  H   UNL     1       8.961 -10.448 -43.432  1.00  0.00     0.180 HD
ENDROOT
BRANCH   1   3
ATOM      3  S   UNL     1       7.894 -12.114 -42.412  1.00  0.00     0.232 S 
ATOM      4  O   UNL     1       6.614 -12.770 -42.569  1.00  0.00    -0.207 OA
ATOM      5  O   UNL     1       8.262 -11.469 -41.171  1.00  0.00    -0.207 OA
BRANCH   3   6
ATOM      6  C   UNL     1       9.187 -13.271 -42.852  1.00  0.00     0.159 C 
BRANCH   6   7
ATOM      7  C   UNL     1       9.646 -13.135 -44.298  1.00  0.00     0.015 C 
ATOM      8  C   UNL     1       8.818 -14.013 -45.222  1.00  0.00     0.005 C 
ENDBRANCH   6   7
ENDBRANCH   3   6
ENDBRANCH   1   3
BRANCH   1   9
ATOM      9  C   UNL     1       6.964 -10.025 -43.746  1.00  0.00     0.085 A 
ATOM     10  C   UNL     1       6.948  -8.843 -43.003  1.00  0.00     0.033 A 
ATOM     11  C   UNL     1       5.977 -10.262 -44.709  1.00  0.00     0.161 A 
ATOM     12  C   UNL     1       5.927  -7.911 -43.209  1.00  0.00     0.042 A 
ATOM     13  C   UNL     1       4.978  -9.322 -44.928  1.00  0.00     0.096 A 
ATOM     14  C   UNL     1       4.948  -8.155 -44.172  1.00  0.00     0.137 A 
ATOM     15  F   UNL     1       6.016 -11.401 -45.418  1.00  0.00    -0.204 F 
ATOM     16  F   UNL     1       4.000  -7.231 -44.372  1.00  0.00    -0.206 F 
BRANCH  13  17
ATOM     17  C   UNL     1       3.951  -9.558 -45.941  1.00  0.00     0.201 C 
ATOM     18  O   UNL     1       4.146  -9.110 -47.068  1.00  0.00    -0.288 OA
BRANCH  17  19
ATOM     19  C   UNL     1       2.754 -10.311 -45.573  1.00  0.00     0.050 A 
ATOM     20  C   UNL     1       2.620 -11.692 -45.509  1.00  0.00     0.097 A 
ATOM     21  C   UNL     1       1.476  -9.765 -45.215  1.00  0.00     0.031 A 
ATOM     22  N   UNL     1       1.338 -11.989 -45.118  1.00  0.00    -0.345 N 
ATOM     23  C   UNL     1       0.934  -8.471 -45.088  1.00  0.00     0.035 A 
ATOM     24  C   UNL     1       0.631 -10.835 -44.941  1.00  0.00     0.138 A 
ATOM     25  C   UNL     1      -0.401  -8.365 -44.702  1.00  0.00     0.060 A 
ATOM     26  N   UNL     1      -0.661 -10.791 -44.565  1.00  0.00    -0.237 NA
ATOM     27  C   UNL     1      -1.131  -9.523 -44.460  1.00  0.00     0.134 A 
ATOM     28  H   UNL     1       0.951 -12.911 -44.976  1.00  0.00     0.167 HD
ATOM     29  Cl  UNL     1      -1.131  -6.819 -44.528  1.00  0.00    -0.083 Cl
ENDBRANCH  17  19
ENDBRANCH  13  17
ENDBRANCH   1   9
TORSDOF 6
ENDMDL
MODEL 18
REMARK VINA RESULT:    -6.860      8.080     10.545
REMARK INTER + INTRA:         -10.376
REMARK INTER:                  -8.969
REMARK INTRA:                  -1.407
REMARK UNBOUND:                -1.110
REMARK SMILES CCCS(=O)(=O)Nc1ccc(F)c(C(=O)c2c[nH]c3ncc(Cl)cc23)c1F
REMARK SMILES IDX 7 1 4 3 5 4 6 5 3 6 2 7 1 8 8 9 9 10 26 11 10 12 13 13 11 14
REMARK SMILES IDX 27 15 12 16 14 17 15 18 16 19 17 20 25 21 18 22 24 23 19 24
REMARK SMILES IDX 22 25 20 26 21 27 23 29
REMARK H PARENT 7 2 18 28
ROOT
ATOM      1  N   UNL     1       6.702 -17.859 -43.712  1.00  0.00    -0.281 N 
ATOM      2  H   UNL     1       7.637 -18.283 -43.728  1.00  0.00     0.180 HD
ENDROOT
BRANCH   1   3
ATOM      3  S   UNL     1       6.410 -17.266 -45.282  1.00  0.00     0.232 S 
ATOM      4  O   UNL     1       5.195 -17.859 -45.800  1.00  0.00    -0.207 OA
ATOM      5  O   UNL     1       7.667 -17.390 -45.986  1.00  0.00    -0.207 OA
BRANCH   3   6
ATOM      6  C   UNL     1       6.109 -15.531 -44.964  1.00  0.00     0.159 C 
BRANCH   6   7
ATOM      7  C   UNL     1       5.270 -14.861 -46.043  1.00  0.00     0.015 C 
ATOM      8  C   UNL     1       3.865 -14.566 -45.544  1.00  0.00     0.005 C 
ENDBRANCH   6   7
ENDBRANCH   3   6
ENDBRANCH   1   3
BRANCH   1   9
ATOM      9  C   UNL     1       5.692 -18.735 -43.199  1.00  0.00     0.085 A 
ATOM     10  C   UNL     1       5.746 -20.098 -43.500  1.00  0.00     0.033 A 
ATOM     11  C   UNL     1       4.741 -18.253 -42.294  1.00  0.00     0.161 A 
ATOM     12  C   UNL     1       4.829 -20.972 -42.910  1.00  0.00     0.042 A 
ATOM     13  C   UNL     1       3.847 -19.128 -41.691  1.00  0.00     0.096 A 
ATOM     14  C   UNL     1       3.885 -20.482 -42.007  1.00  0.00     0.137 A 
ATOM     15  F   UNL     1       4.713 -16.941 -42.013  1.00  0.00    -0.204 F 
ATOM     16  F   UNL     1       3.039 -21.346 -41.431  1.00  0.00    -0.206 F 
BRANCH  13  17
ATOM     17  C   UNL     1       2.860 -18.633 -40.734  1.00  0.00     0.201 C 
ATOM     18  O   UNL     1       3.268 -18.224 -39.651  1.00  0.00    -0.288 OA
BRANCH  17  19
ATOM     19  C   UNL     1       1.447 -18.644 -41.107  1.00  0.00     0.050 A 
ATOM     20  C   UNL     1       0.491 -19.582 -40.738  1.00  0.00     0.097 A 
ATOM     21  C   UNL     1       0.773 -17.689 -41.939  1.00  0.00     0.031 A 
ATOM     22  N   UNL     1      -0.711 -19.223 -41.295  1.00  0.00    -0.345 N 
ATOM     23  C   UNL     1       1.144 -16.519 -42.633  1.00  0.00     0.035 A 
ATOM     24  C   UNL     1      -0.558 -18.082 -42.029  1.00  0.00     0.138 A 
ATOM     25  C   UNL     1       0.153 -15.854 -43.352  1.00  0.00     0.060 A 
ATOM     26  N   UNL     1      -1.553 -17.481 -42.706  1.00  0.00    -0.237 NA
ATOM     27  C   UNL     1      -1.141 -16.363 -43.355  1.00  0.00     0.134 A 
ATOM     28  H   UNL     1      -1.590 -19.710 -41.193  1.00  0.00     0.167 HD
ATOM     29  Cl  UNL     1       0.531 -14.422 -44.224  1.00  0.00    -0.083 Cl
ENDBRANCH  17  19
ENDBRANCH  13  17
ENDBRANCH   1   9
TORSDOF 6
ENDMDL
MODEL 19
REMARK VINA RESULT:    -6.835      4.044      8.082
REMARK INTER + INTRA:         -10.342
REMARK INTER:                  -9.399
REMARK INTRA:                  -0.943
REMARK UNBOUND:                -1.110
REMARK SMILES CCCS(=O)(=O)Nc1ccc(F)c(C(=O)c2c[nH]c3ncc(Cl)cc23)c1F
REMARK SMILES IDX 7 1 4 3 5 4 6 5 3 6 2 7 1 8 8 9 9 10 26 11 10 12 13 13 11 14
REMARK SMILES IDX 27 15 12 16 14 17 15 18 16 19 17 20 25 21 18 22 24 23 19 24
REMARK SMILES IDX 22 25 20 26 21 27 23 29
REMARK H PARENT 7 2 18 28
ROOT
ATOM      1  N   UNL     1       2.602 -13.459 -46.319  1.00  0.00    -0.281 N 
ATOM      2  H   UNL     1       3.398 -13.016 -45.845  1.00  0.00     0.180 HD
ENDROOT
BRANCH   1   3
ATOM      3  S   UNL     1       2.441 -15.015 -45.646  1.00  0.00     0.232 S 
ATOM      4  O   UNL     1       2.135 -15.962 -46.697  1.00  0.00    -0.207 OA
ATOM      5  O   UNL     1       1.574 -14.857 -44.499  1.00  0.00    -0.207 OA
BRANCH   3   6
ATOM      6  C   UNL     1       4.102 -15.330 -45.060  1.00  0.00     0.159 C 
BRANCH   6   7
ATOM      7  C   UNL     1       5.179 -14.827 -46.013  1.00  0.00     0.015 C 
ATOM      8  C   UNL     1       5.750 -15.963 -46.846  1.00  0.00     0.005 C 
ENDBRANCH   6   7
ENDBRANCH   3   6
ENDBRANCH   1   3
BRANCH   1   9
ATOM      9  C   UNL     1       1.412 -12.662 -46.289  1.00  0.00     0.085 A 
ATOM     10  C   UNL     1       0.349 -12.980 -47.138  1.00  0.00     0.033 A 
ATOM     11  C   UNL     1       1.264 -11.662 -45.323  1.00  0.00     0.161 A 
ATOM     12  C   UNL     1      -0.853 -12.276 -47.033  1.00  0.00     0.042 A 
ATOM     13  C   UNL     1       0.059 -10.981 -45.205  1.00  0.00     0.096 A 
ATOM     14  C   UNL     1      -0.992 -11.281 -46.065  1.00  0.00     0.137 A 
ATOM     15  F   UNL     1       2.295 -11.378 -44.512  1.00  0.00    -0.204 F 
ATOM     16  F   UNL     1      -2.165 -10.643 -45.964  1.00  0.00    -0.206 F 
BRANCH  13  17
ATOM     17  C   UNL     1      -0.106  -9.943 -44.190  1.00  0.00     0.201 C 
ATOM     18  O   UNL     1       0.039 -10.265 -43.013  1.00  0.00    -0.288 OA
BRANCH  17  19
ATOM     19  C   UNL     1      -0.430  -8.583 -44.614  1.00  0.00     0.050 A 
ATOM     20  C   UNL     1       0.355  -7.737 -45.388  1.00  0.00     0.097 A 
ATOM     21  C   UNL     1      -1.625  -7.851 -44.304  1.00  0.00     0.031 A 
ATOM     22  N   UNL     1      -0.318  -6.554 -45.562  1.00  0.00    -0.345 N 
ATOM     23  C   UNL     1      -2.802  -8.108 -43.572  1.00  0.00     0.035 A 
ATOM     24  C   UNL     1      -1.516  -6.603 -44.909  1.00  0.00     0.138 A 
ATOM     25  C   UNL     1      -3.758  -7.096 -43.512  1.00  0.00     0.060 A 
ATOM     26  N   UNL     1      -2.404  -5.592 -44.883  1.00  0.00    -0.237 NA
ATOM     27  C   UNL     1      -3.515  -5.893 -44.166  1.00  0.00     0.134 A 
ATOM     28  H   UNL     1       0.001  -5.753 -46.088  1.00  0.00     0.167 HD
ATOM     29  Cl  UNL     1      -5.217  -7.336 -42.636  1.00  0.00    -0.083 Cl
ENDBRANCH  17  19
ENDBRANCH  13  17
ENDBRANCH   1   9
TORSDOF 6
ENDMDL
MODEL 20
REMARK VINA RESULT:    -6.738      4.008      5.448
REMARK INTER + INTRA:         -10.212
REMARK INTER:                  -8.663
REMARK INTRA:                  -1.549
REMARK UNBOUND:                -1.110
REMARK SMILES CCCS(=O)(=O)Nc1ccc(F)c(C(=O)c2c[nH]c3ncc(Cl)cc23)c1F
REMARK SMILES IDX 7 1 4 3 5 4 6 5 3 6 2 7 1 8 8 9 9 10 26 11 10 12 13 13 11 14
REMARK SMILES IDX 27 15 12 16 14 17 15 18 16 19 17 20 25 21 18 22 24 23 19 24
REMARK SMILES IDX 22 25 20 26 21 27 23 29
REMARK H PARENT 7 2 18 28
ROOT
ATOM      1  N   UNL     1      -3.669  -8.480 -44.429  1.00  0.00    -0.281 N 
ATOM      2  H   UNL     1      -3.486  -8.049 -43.515  1.00  0.00     0.180 HD
ENDROOT
BRANCH   1   3
ATOM      3  S   UNL     1      -3.977  -7.204 -45.515  1.00  0.00     0.232 S 
ATOM      4  O   UNL     1      -5.321  -7.333 -46.036  1.00  0.00    -0.207 OA
ATOM      5  O   UNL     1      -2.830  -7.155 -46.394  1.00  0.00    -0.207 OA
BRANCH   3   6
ATOM      6  C   UNL     1      -3.918  -5.783 -44.429  1.00  0.00     0.159 C 
BRANCH   6   7
ATOM      7  C   UNL     1      -2.738  -4.862 -44.711  1.00  0.00     0.015 C 
ATOM      8  C   UNL     1      -1.573  -5.160 -43.781  1.00  0.00     0.005 C 
ENDBRANCH   6   7
ENDBRANCH   3   6
ENDBRANCH   1   3
BRANCH   1   9
ATOM      9  C   UNL     1      -2.641  -9.389 -44.841  1.00  0.00     0.085 A 
ATOM     10  C   UNL     1      -2.885 -10.274 -45.892  1.00  0.00     0.033 A 
ATOM     11  C   UNL     1      -1.360  -9.294 -44.287  1.00  0.00     0.161 A 
ATOM     12  C   UNL     1      -1.850 -11.083 -46.370  1.00  0.00     0.042 A 
ATOM     13  C   UNL     1      -0.327 -10.080 -44.780  1.00  0.00     0.096 A 
ATOM     14  C   UNL     1      -0.576 -10.980 -45.812  1.00  0.00     0.137 A 
ATOM     15  F   UNL     1      -1.145  -8.429 -43.283  1.00  0.00    -0.204 F 
ATOM     16  F   UNL     1       0.407 -11.742 -46.309  1.00  0.00    -0.206 F 
BRANCH  13  17
ATOM     17  C   UNL     1       1.016  -9.977 -44.214  1.00  0.00     0.201 C 
ATOM     18  O   UNL     1       1.179 -10.353 -43.056  1.00  0.00    -0.288 OA
BRANCH  17  19
ATOM     19  C   UNL     1       2.093  -9.439 -45.042  1.00  0.00     0.050 A 
ATOM     20  C   UNL     1       3.226 -10.111 -45.482  1.00  0.00     0.097 A 
ATOM     21  C   UNL     1       2.193  -8.101 -45.552  1.00  0.00     0.031 A 
ATOM     22  N   UNL     1       3.980  -9.246 -46.237  1.00  0.00    -0.345 N 
ATOM     23  C   UNL     1       1.408  -6.933 -45.477  1.00  0.00     0.035 A 
ATOM     24  C   UNL     1       3.373  -8.025 -46.286  1.00  0.00     0.138 A 
ATOM     25  C   UNL     1       1.874  -5.799 -46.140  1.00  0.00     0.060 A 
ATOM     26  N   UNL     1       3.869  -6.960 -46.943  1.00  0.00    -0.237 NA
ATOM     27  C   UNL     1       3.075  -5.866 -46.837  1.00  0.00     0.134 A 
ATOM     28  H   UNL     1       4.855  -9.457 -46.697  1.00  0.00     0.167 HD
ATOM     29  Cl  UNL     1       0.971  -4.338 -46.092  1.00  0.00    -0.083 Cl
ENDBRANCH  17  19
ENDBRANCH  13  17
ENDBRANCH   1   9
TORSDOF 6
ENDMDL
