MODEL 1
REMARK VINA RESULT:    -8.367      0.000      0.000
REMARK INTER + INTRA:         -13.624
REMARK INTER:                 -12.280
REMARK INTRA:                  -1.344
REMARK UNBOUND:                -1.344
REMARK SMILES CN(C)C/C=C/C(=O)Nc1cc2c(Nc3ccc(F)c(Cl)c3)ncnc2cc1O[C@H]1CCOC1
REMARK SMILES IDX 7 1 8 2 9 3 6 5 5 6 4 7 2 8 1 9 3 10 10 11 11 12 28 13 12 14
REMARK SMILES IDX 27 15 13 16 26 17 23 18 25 19 24 20 29 21 30 22 31 23 34 24
REMARK SMILES IDX 32 25 33 26 14 27 15 29 16 30 22 31 17 32 20 33 18 34 21 35
REMARK SMILES IDX 19 36
REMARK H PARENT 9 4 14 28
ROOT
ATOM      1  C   UNL     1      -0.019 -15.618 -43.589  1.00  0.00     0.248 C 
ATOM      2  O   UNL     1      -0.761 -15.472 -44.553  1.00  0.00    -0.270 OA
ATOM      3  N   UNL     1       0.904 -14.723 -43.110  1.00  0.00    -0.319 N 
ATOM      4  H   UNL     1       1.340 -14.920 -42.215  1.00  0.00     0.170 HD
ENDROOT
BRANCH   1   5
ATOM      5  C   UNL     1      -0.153 -16.849 -42.762  1.00  0.00     0.068 C 
ATOM      6  C   UNL     1      -1.232 -17.650 -42.791  1.00  0.00    -0.006 C 
BRANCH   6   7
ATOM      7  C   UNL     1      -1.521 -18.896 -41.994  1.00  0.00     0.111 C 
BRANCH   7   8
ATOM      8  N   UNL     1      -0.521 -19.937 -41.807  1.00  0.00    -0.306 NA
ATOM      9  C   UNL     1      -1.034 -21.296 -41.868  1.00  0.00     0.105 C 
ATOM     10  C   UNL     1       0.405 -19.718 -40.708  1.00  0.00     0.105 C 
ENDBRANCH   7   8
ENDBRANCH   6   7
ENDBRANCH   1   5
BRANCH   3  11
ATOM     11  C   UNL     1       1.295 -13.490 -43.673  1.00  0.00     0.085 A 
ATOM     12  C   UNL     1       0.599 -12.299 -43.480  1.00  0.00     0.044 A 
ATOM     13  C   UNL     1       2.444 -13.489 -44.481  1.00  0.00     0.145 A 
ATOM     14  C   UNL     1       1.042 -11.088 -44.070  1.00  0.00     0.045 A 
ATOM     15  C   UNL     1       2.859 -12.300 -45.083  1.00  0.00     0.077 A 
ATOM     16  C   UNL     1       0.422  -9.831 -43.911  1.00  0.00     0.141 A 
ATOM     17  C   UNL     1       2.180 -11.103 -44.886  1.00  0.00     0.080 A 
ATOM     18  N   UNL     1       0.887  -8.730 -44.528  1.00  0.00    -0.219 NA
ATOM     19  N   UNL     1       2.650 -10.010 -45.492  1.00  0.00    -0.236 NA
ATOM     20  C   UNL     1       1.975  -8.874 -45.288  1.00  0.00     0.224 A 
BRANCH  13  21
ATOM     21  O   UNL     1       3.067 -14.707 -44.614  1.00  0.00    -0.486 OA
BRANCH  21  22
ATOM     22  C   UNL     1       4.493 -14.773 -44.473  1.00  0.00     0.201 C 
ATOM     23  C   UNL     1       4.802 -14.749 -42.991  1.00  0.00     0.076 C 
ATOM     24  C   UNL     1       5.025 -16.144 -44.872  1.00  0.00     0.205 C 
ATOM     25  C   UNL     1       4.565 -16.189 -42.591  1.00  0.00     0.164 C 
ATOM     26  O   UNL     1       4.940 -16.996 -43.712  1.00  0.00    -0.377 OA
ENDBRANCH  21  22
ENDBRANCH  13  21
BRANCH  16  27
ATOM     27  N   UNL     1      -0.729  -9.731 -43.081  1.00  0.00    -0.340 N 
ATOM     28  H   UNL     1      -0.470  -9.309 -42.195  1.00  0.00     0.168 HD
BRANCH  27  29
ATOM     29  C   UNL     1      -2.062  -9.431 -43.440  1.00  0.00     0.041 A 
ATOM     30  C   UNL     1      -2.366  -8.131 -43.882  1.00  0.00     0.029 A 
ATOM     31  C   UNL     1      -3.119 -10.335 -43.269  1.00  0.00     0.049 A 
ATOM     32  C   UNL     1      -3.675  -7.765 -44.203  1.00  0.00     0.043 A 
ATOM     33  C   UNL     1      -4.430  -9.970 -43.588  1.00  0.00     0.078 A 
ATOM     34  C   UNL     1      -4.701  -8.689 -44.058  1.00  0.00     0.141 A 
ATOM     35  Cl  UNL     1      -5.702 -11.113 -43.384  1.00  0.00    -0.081 Cl
ATOM     36  F   UNL     1      -5.952  -8.319 -44.368  1.00  0.00    -0.205 F 
ENDBRANCH  27  29
ENDBRANCH  16  27
ENDBRANCH   3  11
TORSDOF 8
ENDMDL
MODEL 2
REMARK VINA RESULT:    -8.115      5.352      9.645
REMARK INTER + INTRA:         -13.255
REMARK INTER:                 -11.683
REMARK INTRA:                  -1.572
REMARK UNBOUND:                -1.344
REMARK SMILES CN(C)C/C=C/C(=O)Nc1cc2c(Nc3ccc(F)c(Cl)c3)ncnc2cc1O[C@H]1CCOC1
REMARK SMILES IDX 7 1 8 2 9 3 6 5 5 6 4 7 2 8 1 9 3 10 10 11 11 12 28 13 12 14
REMARK SMILES IDX 27 15 13 16 26 17 23 18 25 19 24 20 29 21 30 22 31 23 34 24
REMARK SMILES IDX 32 25 33 26 14 27 15 29 16 30 22 31 17 32 20 33 18 34 21 35
REMARK SMILES IDX 19 36
REMARK H PARENT 9 4 14 28
ROOT
ATOM      1  C   UNL     1       3.090 -15.107 -43.760  1.00  0.00     0.248 C 
ATOM      2  O   UNL     1       3.686 -16.142 -44.035  1.00  0.00    -0.270 OA
ATOM      3  N   UNL     1       1.808 -14.989 -43.287  1.00  0.00    -0.319 N 
ATOM      4  H   UNL     1       1.500 -14.078 -42.963  1.00  0.00     0.170 HD
ENDROOT
BRANCH   1   5
ATOM      5  C   UNL     1       3.822 -13.813 -43.852  1.00  0.00     0.068 C 
ATOM      6  C   UNL     1       4.819 -13.583 -44.723  1.00  0.00    -0.006 C 
BRANCH   6   7
ATOM      7  C   UNL     1       5.665 -12.350 -44.905  1.00  0.00     0.111 C 
BRANCH   7   8
ATOM      8  N   UNL     1       6.529 -11.848 -43.846  1.00  0.00    -0.306 NA
ATOM      9  C   UNL     1       7.061 -10.513 -44.072  1.00  0.00     0.105 C 
ATOM     10  C   UNL     1       7.521 -12.790 -43.355  1.00  0.00     0.105 C 
ENDBRANCH   7   8
ENDBRANCH   6   7
ENDBRANCH   1   5
BRANCH   3  11
ATOM     11  C   UNL     1       0.845 -16.007 -43.118  1.00  0.00     0.085 A 
ATOM     12  C   UNL     1       1.001 -17.077 -42.239  1.00  0.00     0.044 A 
ATOM     13  C   UNL     1      -0.318 -15.926 -43.901  1.00  0.00     0.145 A 
ATOM     14  C   UNL     1      -0.004 -18.069 -42.110  1.00  0.00     0.045 A 
ATOM     15  C   UNL     1      -1.291 -16.922 -43.790  1.00  0.00     0.077 A 
ATOM     16  C   UNL     1       0.050 -19.171 -41.230  1.00  0.00     0.141 A 
ATOM     17  C   UNL     1      -1.153 -17.985 -42.906  1.00  0.00     0.080 A 
ATOM     18  N   UNL     1      -0.932 -20.089 -41.186  1.00  0.00    -0.219 NA
ATOM     19  N   UNL     1      -2.134 -18.889 -42.858  1.00  0.00    -0.236 NA
ATOM     20  C   UNL     1      -1.973 -19.904 -42.001  1.00  0.00     0.224 A 
BRANCH  13  21
ATOM     21  O   UNL     1      -0.386 -14.837 -44.737  1.00  0.00    -0.486 OA
BRANCH  21  22
ATOM     22  C   UNL     1      -0.412 -15.055 -46.154  1.00  0.00     0.201 C 
ATOM     23  C   UNL     1      -0.282 -13.702 -46.822  1.00  0.00     0.076 C 
ATOM     24  C   UNL     1       0.858 -15.750 -46.629  1.00  0.00     0.205 C 
ATOM     25  C   UNL     1       1.209 -13.453 -46.755  1.00  0.00     0.164 C 
ATOM     26  O   UNL     1       1.846 -14.730 -46.873  1.00  0.00    -0.377 OA
ENDBRANCH  21  22
ENDBRANCH  13  21
BRANCH  16  27
ATOM     27  N   UNL     1       1.177 -19.315 -40.375  1.00  0.00    -0.340 N 
ATOM     28  H   UNL     1       0.932 -19.914 -39.593  1.00  0.00     0.168 HD
BRANCH  27  29
ATOM     29  C   UNL     1       2.544 -19.423 -40.714  1.00  0.00     0.041 A 
ATOM     30  C   UNL     1       2.938 -20.419 -41.625  1.00  0.00     0.029 A 
ATOM     31  C   UNL     1       3.544 -18.656 -40.100  1.00  0.00     0.049 A 
ATOM     32  C   UNL     1       4.282 -20.602 -41.958  1.00  0.00     0.043 A 
ATOM     33  C   UNL     1       4.890 -18.838 -40.431  1.00  0.00     0.078 A 
ATOM     34  C   UNL     1       5.251 -19.807 -41.362  1.00  0.00     0.141 A 
ATOM     35  Cl  UNL     1       6.090 -17.865 -39.672  1.00  0.00    -0.081 Cl
ATOM     36  F   UNL     1       6.536 -19.999 -41.693  1.00  0.00    -0.205 F 
ENDBRANCH  27  29
ENDBRANCH  16  27
ENDBRANCH   3  11
TORSDOF 8
ENDMDL
MODEL 3
REMARK VINA RESULT:    -8.052      4.003      8.690
REMARK INTER + INTRA:         -13.162
REMARK INTER:                 -12.012
REMARK INTRA:                  -1.150
REMARK UNBOUND:                -1.344
REMARK SMILES CN(C)C/C=C/C(=O)Nc1cc2c(Nc3ccc(F)c(Cl)c3)ncnc2cc1O[C@H]1CCOC1
REMARK SMILES IDX 7 1 8 2 9 3 6 5 5 6 4 7 2 8 1 9 3 10 10 11 11 12 28 13 12 14
REMARK SMILES IDX 27 15 13 16 26 17 23 18 25 19 24 20 29 21 30 22 31 23 34 24
REMARK SMILES IDX 32 25 33 26 14 27 15 29 16 30 22 31 17 32 20 33 18 34 21 35
REMARK SMILES IDX 19 36
REMARK H PARENT 9 4 14 28
ROOT
ATOM      1  C   UNL     1      -1.692 -10.192 -44.029  1.00  0.00     0.248 C 
ATOM      2  O   UNL     1      -2.255 -10.847 -44.899  1.00  0.00    -0.270 OA
ATOM      3  N   UNL     1      -0.384 -10.297 -43.628  1.00  0.00    -0.319 N 
ATOM      4  H   UNL     1      -0.019  -9.588 -43.001  1.00  0.00     0.170 HD
ENDROOT
BRANCH   1   5
ATOM      5  C   UNL     1      -2.442  -9.092 -43.363  1.00  0.00     0.068 C 
ATOM      6  C   UNL     1      -3.772  -8.926 -43.471  1.00  0.00    -0.006 C 
BRANCH   6   7
ATOM      7  C   UNL     1      -4.653  -7.851 -42.890  1.00  0.00     0.111 C 
BRANCH   7   8
ATOM      8  N   UNL     1      -5.265  -6.827 -43.723  1.00  0.00    -0.306 NA
ATOM      9  C   UNL     1      -5.962  -7.328 -44.896  1.00  0.00     0.105 C 
ATOM     10  C   UNL     1      -4.429  -5.669 -43.999  1.00  0.00     0.105 C 
ENDBRANCH   7   8
ENDBRANCH   6   7
ENDBRANCH   1   5
BRANCH   3  11
ATOM     11  C   UNL     1       0.577 -11.248 -44.032  1.00  0.00     0.085 A 
ATOM     12  C   UNL     1       0.587 -12.569 -43.588  1.00  0.00     0.044 A 
ATOM     13  C   UNL     1       1.577 -10.814 -44.917  1.00  0.00     0.145 A 
ATOM     14  C   UNL     1       1.578 -13.482 -44.031  1.00  0.00     0.045 A 
ATOM     15  C   UNL     1       2.566 -11.710 -45.327  1.00  0.00     0.077 A 
ATOM     16  C   UNL     1       1.656 -14.841 -43.661  1.00  0.00     0.141 A 
ATOM     17  C   UNL     1       2.579 -13.033 -44.902  1.00  0.00     0.080 A 
ATOM     18  N   UNL     1       2.645 -15.638 -44.102  1.00  0.00    -0.219 NA
ATOM     19  N   UNL     1       3.556 -13.824 -45.349  1.00  0.00    -0.236 NA
ATOM     20  C   UNL     1       3.546 -15.092 -44.922  1.00  0.00     0.224 A 
BRANCH  13  21
ATOM     21  O   UNL     1       1.486  -9.498 -45.302  1.00  0.00    -0.486 OA
BRANCH  21  22
ATOM     22  C   UNL     1       2.693  -8.746 -45.483  1.00  0.00     0.201 C 
ATOM     23  C   UNL     1       2.308  -7.409 -46.079  1.00  0.00     0.076 C 
ATOM     24  C   UNL     1       3.285  -8.321 -44.144  1.00  0.00     0.205 C 
ATOM     25  C   UNL     1       1.852  -6.633 -44.862  1.00  0.00     0.164 C 
ATOM     26  O   UNL     1       2.652  -7.084 -43.763  1.00  0.00    -0.377 OA
ENDBRANCH  21  22
ENDBRANCH  13  21
BRANCH  16  27
ATOM     27  N   UNL     1       0.664 -15.376 -42.793  1.00  0.00    -0.340 N 
ATOM     28  H   UNL     1      -0.221 -14.910 -42.965  1.00  0.00     0.168 HD
BRANCH  27  29
ATOM     29  C   UNL     1       0.485 -16.709 -42.361  1.00  0.00     0.041 A 
ATOM     30  C   UNL     1      -0.709 -17.372 -42.697  1.00  0.00     0.029 A 
ATOM     31  C   UNL     1       1.391 -17.365 -41.517  1.00  0.00     0.049 A 
ATOM     32  C   UNL     1      -0.961 -18.673 -42.254  1.00  0.00     0.043 A 
ATOM     33  C   UNL     1       1.140 -18.666 -41.072  1.00  0.00     0.078 A 
ATOM     34  C   UNL     1      -0.032 -19.315 -41.447  1.00  0.00     0.141 A 
ATOM     35  Cl  UNL     1       2.285 -19.450 -40.052  1.00  0.00    -0.081 Cl
ATOM     36  F   UNL     1      -0.293 -20.563 -41.030  1.00  0.00    -0.205 F 
ENDBRANCH  27  29
ENDBRANCH  16  27
ENDBRANCH   3  11
TORSDOF 8
ENDMDL
MODEL 4
REMARK VINA RESULT:    -8.018      3.855      8.540
REMARK INTER + INTRA:         -13.112
REMARK INTER:                 -11.680
REMARK INTRA:                  -1.432
REMARK UNBOUND:                -1.344
REMARK SMILES CN(C)C/C=C/C(=O)Nc1cc2c(Nc3ccc(F)c(Cl)c3)ncnc2cc1O[C@H]1CCOC1
REMARK SMILES IDX 7 1 8 2 9 3 6 5 5 6 4 7 2 8 1 9 3 10 10 11 11 12 28 13 12 14
REMARK SMILES IDX 27 15 13 16 26 17 23 18 25 19 24 20 29 21 30 22 31 23 34 24
REMARK SMILES IDX 32 25 33 26 14 27 15 29 16 30 22 31 17 32 20 33 18 34 21 35
REMARK SMILES IDX 19 36
REMARK H PARENT 9 4 14 28
ROOT
ATOM      1  C   UNL     1       2.539 -14.330 -44.144  1.00  0.00     0.248 C 
ATOM      2  O   UNL     1       1.961 -15.055 -44.944  1.00  0.00    -0.270 OA
ATOM      3  N   UNL     1       3.591 -14.665 -43.330  1.00  0.00    -0.319 N 
ATOM      4  H   UNL     1       4.064 -13.920 -42.828  1.00  0.00     0.170 HD
ENDROOT
BRANCH   1   5
ATOM      5  C   UNL     1       2.152 -12.894 -44.069  1.00  0.00     0.068 C 
ATOM      6  C   UNL     1       1.024 -12.457 -43.482  1.00  0.00    -0.006 C 
BRANCH   6   7
ATOM      7  C   UNL     1       0.488 -11.054 -43.361  1.00  0.00     0.111 C 
BRANCH   7   8
ATOM      8  N   UNL     1      -0.756 -10.650 -43.998  1.00  0.00    -0.306 NA
ATOM      9  C   UNL     1      -0.721 -10.629 -45.452  1.00  0.00     0.105 C 
ATOM     10  C   UNL     1      -1.399  -9.482 -43.419  1.00  0.00     0.105 C 
ENDBRANCH   7   8
ENDBRANCH   6   7
ENDBRANCH   1   5
BRANCH   3  11
ATOM     11  C   UNL     1       4.172 -15.937 -43.138  1.00  0.00     0.085 A 
ATOM     12  C   UNL     1       3.609 -16.928 -42.336  1.00  0.00     0.044 A 
ATOM     13  C   UNL     1       5.392 -16.190 -43.786  1.00  0.00     0.145 A 
ATOM     14  C   UNL     1       4.238 -18.190 -42.183  1.00  0.00     0.045 A 
ATOM     15  C   UNL     1       6.021 -17.424 -43.608  1.00  0.00     0.077 A 
ATOM     16  C   UNL     1       3.734 -19.262 -41.418  1.00  0.00     0.141 A 
ATOM     17  C   UNL     1       5.462 -18.425 -42.823  1.00  0.00     0.080 A 
ATOM     18  N   UNL     1       4.404 -20.421 -41.297  1.00  0.00    -0.219 NA
ATOM     19  N   UNL     1       6.125 -19.578 -42.713  1.00  0.00    -0.236 NA
ATOM     20  C   UNL     1       5.566 -20.522 -41.948  1.00  0.00     0.224 A 
BRANCH  13  21
ATOM     21  O   UNL     1       5.871 -15.157 -44.556  1.00  0.00    -0.486 OA
BRANCH  21  22
ATOM     22  C   UNL     1       7.133 -14.567 -44.214  1.00  0.00     0.201 C 
ATOM     23  C   UNL     1       7.309 -13.341 -45.084  1.00  0.00     0.076 C 
ATOM     24  C   UNL     1       7.094 -13.947 -42.822  1.00  0.00     0.205 C 
ATOM     25  C   UNL     1       6.480 -12.307 -44.355  1.00  0.00     0.164 C 
ATOM     26  O   UNL     1       6.582 -12.607 -42.959  1.00  0.00    -0.377 OA
ENDBRANCH  21  22
ENDBRANCH  13  21
BRANCH  16  27
ATOM     27  N   UNL     1       2.486 -19.107 -40.753  1.00  0.00    -0.340 N 
ATOM     28  H   UNL     1       2.523 -18.286 -40.156  1.00  0.00     0.168 HD
BRANCH  27  29
ATOM     29  C   UNL     1       1.182 -19.350 -41.237  1.00  0.00     0.041 A 
ATOM     30  C   UNL     1       0.454 -18.278 -41.783  1.00  0.00     0.029 A 
ATOM     31  C   UNL     1       0.535 -20.586 -41.099  1.00  0.00     0.049 A 
ATOM     32  C   UNL     1      -0.858 -18.450 -42.232  1.00  0.00     0.043 A 
ATOM     33  C   UNL     1      -0.777 -20.760 -41.546  1.00  0.00     0.078 A 
ATOM     34  C   UNL     1      -1.465 -19.693 -42.115  1.00  0.00     0.141 A 
ATOM     35  Cl  UNL     1      -1.534 -22.297 -41.377  1.00  0.00    -0.081 Cl
ATOM     36  F   UNL     1      -2.725 -19.838 -42.550  1.00  0.00    -0.205 F 
ENDBRANCH  27  29
ENDBRANCH  16  27
ENDBRANCH   3  11
TORSDOF 8
ENDMDL
MODEL 5
REMARK VINA RESULT:    -7.959      1.536      1.819
REMARK INTER + INTRA:         -13.026
REMARK INTER:                 -11.758
REMARK INTRA:                  -1.268
REMARK UNBOUND:                -1.344
REMARK SMILES CN(C)C/C=C/C(=O)Nc1cc2c(Nc3ccc(F)c(Cl)c3)ncnc2cc1O[C@H]1CCOC1
REMARK SMILES IDX 7 1 8 2 9 3 6 5 5 6 4 7 2 8 1 9 3 10 10 11 11 12 28 13 12 14
REMARK SMILES IDX 27 15 13 16 26 17 23 18 25 19 24 20 29 21 30 22 31 23 34 24
REMARK SMILES IDX 32 25 33 26 14 27 15 29 16 30 22 31 17 32 20 33 18 34 21 35
REMARK SMILES IDX 19 36
REMARK H PARENT 9 4 14 28
ROOT
ATOM      1  C   UNL     1       0.023 -15.277 -43.833  1.00  0.00     0.248 C 
ATOM      2  O   UNL     1      -0.600 -15.171 -44.883  1.00  0.00    -0.270 OA
ATOM      3  N   UNL     1       0.962 -14.410 -43.335  1.00  0.00    -0.319 N 
ATOM      4  H   UNL     1       1.285 -14.551 -42.384  1.00  0.00     0.170 HD
ENDROOT
BRANCH   1   5
ATOM      5  C   UNL     1      -0.299 -16.409 -42.920  1.00  0.00     0.068 C 
ATOM      6  C   UNL     1      -1.362 -17.216 -43.082  1.00  0.00    -0.006 C 
BRANCH   6   7
ATOM      7  C   UNL     1      -1.829 -18.366 -42.229  1.00  0.00     0.111 C 
BRANCH   7   8
ATOM      8  N   UNL     1      -3.236 -18.568 -41.917  1.00  0.00    -0.306 NA
ATOM      9  C   UNL     1      -3.655 -19.960 -41.852  1.00  0.00     0.105 C 
ATOM     10  C   UNL     1      -4.163 -17.720 -42.649  1.00  0.00     0.105 C 
ENDBRANCH   7   8
ENDBRANCH   6   7
ENDBRANCH   1   5
BRANCH   3  11
ATOM     11  C   UNL     1       1.512 -13.270 -43.959  1.00  0.00     0.085 A 
ATOM     12  C   UNL     1       0.898 -12.020 -43.957  1.00  0.00     0.044 A 
ATOM     13  C   UNL     1       2.738 -13.431 -44.625  1.00  0.00     0.145 A 
ATOM     14  C   UNL     1       1.500 -10.908 -44.599  1.00  0.00     0.045 A 
ATOM     15  C   UNL     1       3.312 -12.340 -45.280  1.00  0.00     0.077 A 
ATOM     16  C   UNL     1       0.971  -9.600 -44.628  1.00  0.00     0.141 A 
ATOM     17  C   UNL     1       2.716 -11.084 -45.272  1.00  0.00     0.080 A 
ATOM     18  N   UNL     1       1.588  -8.602 -45.284  1.00  0.00    -0.219 NA
ATOM     19  N   UNL     1       3.336 -10.093 -45.917  1.00  0.00    -0.236 NA
ATOM     20  C   UNL     1       2.737  -8.897 -45.896  1.00  0.00     0.224 A 
BRANCH  13  21
ATOM     21  O   UNL     1       3.271 -14.697 -44.573  1.00  0.00    -0.486 OA
BRANCH  21  22
ATOM     22  C   UNL     1       4.688 -14.844 -44.412  1.00  0.00     0.201 C 
ATOM     23  C   UNL     1       4.934 -15.345 -43.005  1.00  0.00     0.076 C 
ATOM     24  C   UNL     1       5.221 -16.005 -45.244  1.00  0.00     0.205 C 
ATOM     25  C   UNL     1       4.664 -16.827 -43.139  1.00  0.00     0.164 C 
ATOM     26  O   UNL     1       5.076 -17.204 -44.457  1.00  0.00    -0.377 OA
ENDBRANCH  21  22
ENDBRANCH  13  21
BRANCH  16  27
ATOM     27  N   UNL     1      -0.252  -9.337 -43.951  1.00  0.00    -0.340 N 
ATOM     28  H   UNL     1      -0.054  -8.904 -43.054  1.00  0.00     0.168 HD
BRANCH  27  29
ATOM     29  C   UNL     1      -1.490  -8.912 -44.481  1.00  0.00     0.041 A 
ATOM     30  C   UNL     1      -1.803  -9.239 -45.812  1.00  0.00     0.029 A 
ATOM     31  C   UNL     1      -2.375  -8.082 -43.779  1.00  0.00     0.049 A 
ATOM     32  C   UNL     1      -2.991  -8.803 -46.404  1.00  0.00     0.043 A 
ATOM     33  C   UNL     1      -3.564  -7.643 -44.369  1.00  0.00     0.078 A 
ATOM     34  C   UNL     1      -3.868  -8.010 -45.676  1.00  0.00     0.141 A 
ATOM     35  Cl  UNL     1      -4.637  -6.641 -43.470  1.00  0.00    -0.081 Cl
ATOM     36  F   UNL     1      -5.002  -7.598 -46.261  1.00  0.00    -0.205 F 
ENDBRANCH  27  29
ENDBRANCH  16  27
ENDBRANCH   3  11
TORSDOF 8
ENDMDL
MODEL 6
REMARK VINA RESULT:    -7.746      4.196      7.630
REMARK INTER + INTRA:         -12.714
REMARK INTER:                 -11.844
REMARK INTRA:                  -0.870
REMARK UNBOUND:                -1.344
REMARK SMILES CN(C)C/C=C/C(=O)Nc1cc2c(Nc3ccc(F)c(Cl)c3)ncnc2cc1O[C@H]1CCOC1
REMARK SMILES IDX 7 1 8 2 9 3 6 5 5 6 4 7 2 8 1 9 3 10 10 11 11 12 28 13 12 14
REMARK SMILES IDX 27 15 13 16 26 17 23 18 25 19 24 20 29 21 30 22 31 23 34 24
REMARK SMILES IDX 32 25 33 26 14 27 15 29 16 30 22 31 17 32 20 33 18 34 21 35
REMARK SMILES IDX 19 36
REMARK H PARENT 9 4 14 28
ROOT
ATOM      1  C   UNL     1       0.675 -11.189 -43.536  1.00  0.00     0.248 C 
ATOM      2  O   UNL     1       1.833 -10.836 -43.727  1.00  0.00    -0.270 OA
ATOM      3  N   UNL     1      -0.463 -10.461 -43.774  1.00  0.00    -0.319 N 
ATOM      4  H   UNL     1      -1.357 -10.937 -43.708  1.00  0.00     0.170 HD
ENDROOT
BRANCH   1   5
ATOM      5  C   UNL     1       0.417 -12.581 -43.077  1.00  0.00     0.068 C 
ATOM      6  C   UNL     1       0.467 -13.653 -43.887  1.00  0.00    -0.006 C 
BRANCH   6   7
ATOM      7  C   UNL     1       0.197 -15.102 -43.575  1.00  0.00     0.111 C 
BRANCH   7   8
ATOM      8  N   UNL     1      -0.807 -15.869 -44.297  1.00  0.00    -0.306 NA
ATOM      9  C   UNL     1      -1.319 -17.029 -43.585  1.00  0.00     0.105 C 
ATOM     10  C   UNL     1      -0.499 -16.136 -45.692  1.00  0.00     0.105 C 
ENDBRANCH   7   8
ENDBRANCH   6   7
ENDBRANCH   1   5
BRANCH   3  11
ATOM     11  C   UNL     1      -0.566  -9.112 -44.176  1.00  0.00     0.085 A 
ATOM     12  C   UNL     1       0.494  -8.386 -44.716  1.00  0.00     0.044 A 
ATOM     13  C   UNL     1      -1.809  -8.483 -44.000  1.00  0.00     0.145 A 
ATOM     14  C   UNL     1       0.329  -7.033 -45.107  1.00  0.00     0.045 A 
ATOM     15  C   UNL     1      -1.957  -7.142 -44.359  1.00  0.00     0.077 A 
ATOM     16  C   UNL     1       1.332  -6.226 -45.685  1.00  0.00     0.141 A 
ATOM     17  C   UNL     1      -0.911  -6.412 -44.912  1.00  0.00     0.080 A 
ATOM     18  N   UNL     1       1.107  -4.939 -46.003  1.00  0.00    -0.219 NA
ATOM     19  N   UNL     1      -1.140  -5.137 -45.235  1.00  0.00    -0.236 NA
ATOM     20  C   UNL     1      -0.114  -4.458 -45.761  1.00  0.00     0.224 A 
BRANCH  13  21
ATOM     21  O   UNL     1      -2.796  -9.276 -43.464  1.00  0.00    -0.486 OA
BRANCH  21  22
ATOM     22  C   UNL     1      -4.096  -9.264 -44.069  1.00  0.00     0.201 C 
ATOM     23  C   UNL     1      -4.658 -10.665 -43.959  1.00  0.00     0.076 C 
ATOM     24  C   UNL     1      -5.090  -8.473 -43.226  1.00  0.00     0.205 C 
ATOM     25  C   UNL     1      -5.175 -10.695 -42.538  1.00  0.00     0.164 C 
ATOM     26  O   UNL     1      -5.632  -9.371 -42.238  1.00  0.00    -0.377 OA
ENDBRANCH  21  22
ENDBRANCH  13  21
BRANCH  16  27
ATOM     27  N   UNL     1       2.614  -6.791 -45.931  1.00  0.00    -0.340 N 
ATOM     28  H   UNL     1       2.992  -6.406 -46.791  1.00  0.00     0.168 HD
BRANCH  27  29
ATOM     29  C   UNL     1       3.631  -7.126 -45.010  1.00  0.00     0.041 A 
ATOM     30  C   UNL     1       4.721  -7.892 -45.459  1.00  0.00     0.029 A 
ATOM     31  C   UNL     1       3.551  -6.828 -43.643  1.00  0.00     0.049 A 
ATOM     32  C   UNL     1       5.731  -8.295 -44.582  1.00  0.00     0.043 A 
ATOM     33  C   UNL     1       4.559  -7.231 -42.763  1.00  0.00     0.078 A 
ATOM     34  C   UNL     1       5.646  -7.957 -43.238  1.00  0.00     0.141 A 
ATOM     35  Cl  UNL     1       4.437  -6.830 -41.093  1.00  0.00    -0.081 Cl
ATOM     36  F   UNL     1       6.624  -8.355 -42.410  1.00  0.00    -0.205 F 
ENDBRANCH  27  29
ENDBRANCH  16  27
ENDBRANCH   3  11
TORSDOF 8
ENDMDL
MODEL 7
REMARK VINA RESULT:    -7.668      3.936      7.465
REMARK INTER + INTRA:         -12.598
REMARK INTER:                 -11.252
REMARK INTRA:                  -1.346
REMARK UNBOUND:                -1.344
REMARK SMILES CN(C)C/C=C/C(=O)Nc1cc2c(Nc3ccc(F)c(Cl)c3)ncnc2cc1O[C@H]1CCOC1
REMARK SMILES IDX 7 1 8 2 9 3 6 5 5 6 4 7 2 8 1 9 3 10 10 11 11 12 28 13 12 14
REMARK SMILES IDX 27 15 13 16 26 17 23 18 25 19 24 20 29 21 30 22 31 23 34 24
REMARK SMILES IDX 32 25 33 26 14 27 15 29 16 30 22 31 17 32 20 33 18 34 21 35
REMARK SMILES IDX 19 36
REMARK H PARENT 9 4 14 28
ROOT
ATOM      1  C   UNL     1       0.117 -10.499 -44.315  1.00  0.00     0.248 C 
ATOM      2  O   UNL     1       0.508 -10.303 -43.170  1.00  0.00    -0.270 OA
ATOM      3  N   UNL     1       0.796 -11.129 -45.327  1.00  0.00    -0.319 N 
ATOM      4  H   UNL     1       0.289 -11.350 -46.177  1.00  0.00     0.170 HD
ENDROOT
BRANCH   1   5
ATOM      5  C   UNL     1      -1.272 -10.103 -44.675  1.00  0.00     0.068 C 
ATOM      6  C   UNL     1      -1.596  -9.492 -45.828  1.00  0.00    -0.006 C 
BRANCH   6   7
ATOM      7  C   UNL     1      -2.939  -9.005 -46.309  1.00  0.00     0.111 C 
BRANCH   7   8
ATOM      8  N   UNL     1      -3.307  -7.598 -46.264  1.00  0.00    -0.306 NA
ATOM      9  C   UNL     1      -2.227  -6.695 -45.899  1.00  0.00     0.105 C 
ATOM     10  C   UNL     1      -4.559  -7.305 -45.585  1.00  0.00     0.105 C 
ENDBRANCH   7   8
ENDBRANCH   6   7
ENDBRANCH   1   5
BRANCH   3  11
ATOM     11  C   UNL     1       2.130 -11.591 -45.325  1.00  0.00     0.085 A 
ATOM     12  C   UNL     1       3.237 -10.748 -45.394  1.00  0.00     0.044 A 
ATOM     13  C   UNL     1       2.328 -12.980 -45.264  1.00  0.00     0.145 A 
ATOM     14  C   UNL     1       4.556 -11.270 -45.385  1.00  0.00     0.045 A 
ATOM     15  C   UNL     1       3.628 -13.490 -45.285  1.00  0.00     0.077 A 
ATOM     16  C   UNL     1       5.736 -10.499 -45.424  1.00  0.00     0.141 A 
ATOM     17  C   UNL     1       4.740 -12.658 -45.340  1.00  0.00     0.080 A 
ATOM     18  N   UNL     1       6.954 -11.070 -45.442  1.00  0.00    -0.219 NA
ATOM     19  N   UNL     1       5.947 -13.228 -45.348  1.00  0.00    -0.236 NA
ATOM     20  C   UNL     1       6.999 -12.403 -45.404  1.00  0.00     0.224 A 
BRANCH  13  21
ATOM     21  O   UNL     1       1.180 -13.732 -45.196  1.00  0.00    -0.486 OA
BRANCH  21  22
ATOM     22  C   UNL     1       1.288 -15.162 -45.220  1.00  0.00     0.201 C 
ATOM     23  C   UNL     1       1.139 -15.651 -43.795  1.00  0.00     0.076 C 
ATOM     24  C   UNL     1       0.073 -15.797 -45.887  1.00  0.00     0.205 C 
ATOM     25  C   UNL     1      -0.362 -15.637 -43.606  1.00  0.00     0.164 C 
ATOM     26  O   UNL     1      -0.940 -15.960 -44.876  1.00  0.00    -0.377 OA
ENDBRANCH  21  22
ENDBRANCH  13  21
BRANCH  16  27
ATOM     27  N   UNL     1       5.632  -9.081 -45.453  1.00  0.00    -0.340 N 
ATOM     28  H   UNL     1       5.409  -8.778 -46.396  1.00  0.00     0.168 HD
BRANCH  27  29
ATOM     29  C   UNL     1       5.100  -8.207 -44.478  1.00  0.00     0.041 A 
ATOM     30  C   UNL     1       5.613  -8.263 -43.170  1.00  0.00     0.029 A 
ATOM     31  C   UNL     1       4.008  -7.364 -44.725  1.00  0.00     0.049 A 
ATOM     32  C   UNL     1       5.091  -7.458 -42.155  1.00  0.00     0.043 A 
ATOM     33  C   UNL     1       3.484  -6.558 -43.710  1.00  0.00     0.078 A 
ATOM     34  C   UNL     1       4.032  -6.605 -42.432  1.00  0.00     0.141 A 
ATOM     35  Cl  UNL     1       2.154  -5.519 -44.053  1.00  0.00    -0.081 Cl
ATOM     36  F   UNL     1       3.543  -5.842 -41.444  1.00  0.00    -0.205 F 
ENDBRANCH  27  29
ENDBRANCH  16  27
ENDBRANCH   3  11
TORSDOF 8
ENDMDL
MODEL 8
REMARK VINA RESULT:    -7.651      6.661     10.169
REMARK INTER + INTRA:         -12.573
REMARK INTER:                 -10.830
REMARK INTRA:                  -1.743
REMARK UNBOUND:                -1.344
REMARK SMILES CN(C)C/C=C/C(=O)Nc1cc2c(Nc3ccc(F)c(Cl)c3)ncnc2cc1O[C@H]1CCOC1
REMARK SMILES IDX 7 1 8 2 9 3 6 5 5 6 4 7 2 8 1 9 3 10 10 11 11 12 28 13 12 14
REMARK SMILES IDX 27 15 13 16 26 17 23 18 25 19 24 20 29 21 30 22 31 23 34 24
REMARK SMILES IDX 32 25 33 26 14 27 15 29 16 30 22 31 17 32 20 33 18 34 21 35
REMARK SMILES IDX 19 36
REMARK H PARENT 9 4 14 28
ROOT
ATOM      1  C   UNL     1       7.220 -14.626 -41.933  1.00  0.00     0.248 C 
ATOM      2  O   UNL     1       8.003 -15.095 -41.115  1.00  0.00    -0.270 OA
ATOM      3  N   UNL     1       6.530 -15.305 -42.905  1.00  0.00    -0.319 N 
ATOM      4  H   UNL     1       5.806 -14.808 -43.413  1.00  0.00     0.170 HD
ENDROOT
BRANCH   1   5
ATOM      5  C   UNL     1       6.882 -13.178 -41.852  1.00  0.00     0.068 C 
ATOM      6  C   UNL     1       7.693 -12.199 -42.289  1.00  0.00    -0.006 C 
BRANCH   6   7
ATOM      7  C   UNL     1       7.502 -10.706 -42.241  1.00  0.00     0.111 C 
BRANCH   7   8
ATOM      8  N   UNL     1       6.896  -9.974 -43.343  1.00  0.00    -0.306 NA
ATOM      9  C   UNL     1       7.471 -10.249 -44.651  1.00  0.00     0.105 C 
ATOM     10  C   UNL     1       6.669  -8.558 -43.098  1.00  0.00     0.105 C 
ENDBRANCH   7   8
ENDBRANCH   6   7
ENDBRANCH   1   5
BRANCH   3  11
ATOM     11  C   UNL     1       6.644 -16.665 -43.265  1.00  0.00     0.085 A 
ATOM     12  C   UNL     1       5.984 -17.696 -42.600  1.00  0.00     0.044 A 
ATOM     13  C   UNL     1       7.486 -16.974 -44.346  1.00  0.00     0.145 A 
ATOM     14  C   UNL     1       6.135 -19.045 -43.010  1.00  0.00     0.045 A 
ATOM     15  C   UNL     1       7.654 -18.308 -44.726  1.00  0.00     0.077 A 
ATOM     16  C   UNL     1       5.489 -20.152 -42.418  1.00  0.00     0.141 A 
ATOM     17  C   UNL     1       6.989 -19.343 -44.079  1.00  0.00     0.080 A 
ATOM     18  N   UNL     1       5.706 -21.408 -42.846  1.00  0.00    -0.219 NA
ATOM     19  N   UNL     1       7.199 -20.588 -44.512  1.00  0.00    -0.236 NA
ATOM     20  C   UNL     1       6.550 -21.564 -43.868  1.00  0.00     0.224 A 
BRANCH  13  21
ATOM     21  O   UNL     1       8.093 -15.895 -44.942  1.00  0.00    -0.486 OA
BRANCH  21  22
ATOM     22  C   UNL     1       9.514 -15.922 -45.137  1.00  0.00     0.201 C 
ATOM     23  C   UNL     1       9.884 -14.692 -45.939  1.00  0.00     0.076 C 
ATOM     24  C   UNL     1      10.256 -15.665 -43.830  1.00  0.00     0.205 C 
ATOM     25  C   UNL     1       9.918 -13.614 -44.877  1.00  0.00     0.164 C 
ATOM     26  O   UNL     1      10.373 -14.238 -43.672  1.00  0.00    -0.377 OA
ENDBRANCH  21  22
ENDBRANCH  13  21
BRANCH  16  27
ATOM     27  N   UNL     1       4.592 -19.929 -41.338  1.00  0.00    -0.340 N 
ATOM     28  H   UNL     1       5.048 -19.359 -40.633  1.00  0.00     0.168 HD
BRANCH  27  29
ATOM     29  C   UNL     1       3.196 -19.713 -41.370  1.00  0.00     0.041 A 
ATOM     30  C   UNL     1       2.701 -18.447 -41.010  1.00  0.00     0.029 A 
ATOM     31  C   UNL     1       2.273 -20.733 -41.636  1.00  0.00     0.049 A 
ATOM     32  C   UNL     1       1.327 -18.192 -40.975  1.00  0.00     0.043 A 
ATOM     33  C   UNL     1       0.898 -20.480 -41.601  1.00  0.00     0.078 A 
ATOM     34  C   UNL     1       0.433 -19.210 -41.276  1.00  0.00     0.141 A 
ATOM     35  Cl  UNL     1      -0.207 -21.753 -41.952  1.00  0.00    -0.081 Cl
ATOM     36  F   UNL     1      -0.881 -18.947 -41.236  1.00  0.00    -0.205 F 
ENDBRANCH  27  29
ENDBRANCH  16  27
ENDBRANCH   3  11
TORSDOF 8
ENDMDL
MODEL 9
REMARK VINA RESULT:    -7.626      5.187      8.638
REMARK INTER + INTRA:         -12.536
REMARK INTER:                 -10.754
REMARK INTRA:                  -1.782
REMARK UNBOUND:                -1.344
REMARK SMILES CN(C)C/C=C/C(=O)Nc1cc2c(Nc3ccc(F)c(Cl)c3)ncnc2cc1O[C@H]1CCOC1
REMARK SMILES IDX 7 1 8 2 9 3 6 5 5 6 4 7 2 8 1 9 3 10 10 11 11 12 28 13 12 14
REMARK SMILES IDX 27 15 13 16 26 17 23 18 25 19 24 20 29 21 30 22 31 23 34 24
REMARK SMILES IDX 32 25 33 26 14 27 15 29 16 30 22 31 17 32 20 33 18 34 21 35
REMARK SMILES IDX 19 36
REMARK H PARENT 9 4 14 28
ROOT
ATOM      1  C   UNL     1       6.184 -16.571 -44.254  1.00  0.00     0.248 C 
ATOM      2  O   UNL     1       5.417 -16.889 -45.155  1.00  0.00    -0.270 OA
ATOM      3  N   UNL     1       6.186 -17.036 -42.963  1.00  0.00    -0.319 N 
ATOM      4  H   UNL     1       6.973 -16.795 -42.370  1.00  0.00     0.170 HD
ENDROOT
BRANCH   1   5
ATOM      5  C   UNL     1       7.309 -15.646 -44.565  1.00  0.00     0.068 C 
ATOM      6  C   UNL     1       7.511 -14.480 -43.927  1.00  0.00    -0.006 C 
BRANCH   6   7
ATOM      7  C   UNL     1       8.573 -13.436 -44.154  1.00  0.00     0.111 C 
BRANCH   7   8
ATOM      8  N   UNL     1       9.477 -13.018 -43.093  1.00  0.00    -0.306 NA
ATOM      9  C   UNL     1      10.783 -13.659 -43.114  1.00  0.00     0.105 C 
ATOM     10  C   UNL     1       8.889 -12.951 -41.765  1.00  0.00     0.105 C 
ENDBRANCH   7   8
ENDBRANCH   6   7
ENDBRANCH   1   5
BRANCH   3  11
ATOM     11  C   UNL     1       5.247 -17.888 -42.343  1.00  0.00     0.085 A 
ATOM     12  C   UNL     1       3.938 -17.510 -42.053  1.00  0.00     0.044 A 
ATOM     13  C   UNL     1       5.682 -19.177 -41.995  1.00  0.00     0.145 A 
ATOM     14  C   UNL     1       3.037 -18.411 -41.431  1.00  0.00     0.045 A 
ATOM     15  C   UNL     1       4.800 -20.050 -41.356  1.00  0.00     0.077 A 
ATOM     16  C   UNL     1       1.689 -18.131 -41.122  1.00  0.00     0.141 A 
ATOM     17  C   UNL     1       3.487 -19.689 -41.074  1.00  0.00     0.080 A 
ATOM     18  N   UNL     1       0.904 -19.031 -40.504  1.00  0.00    -0.219 NA
ATOM     19  N   UNL     1       2.708 -20.587 -40.469  1.00  0.00    -0.236 NA
ATOM     20  C   UNL     1       1.451 -20.212 -40.207  1.00  0.00     0.224 A 
BRANCH  13  21
ATOM     21  O   UNL     1       6.986 -19.462 -42.321  1.00  0.00    -0.486 OA
BRANCH  21  22
ATOM     22  C   UNL     1       7.269 -20.666 -43.047  1.00  0.00     0.201 C 
ATOM     23  C   UNL     1       6.798 -20.457 -44.470  1.00  0.00     0.076 C 
ATOM     24  C   UNL     1       8.769 -20.851 -43.249  1.00  0.00     0.205 C 
ATOM     25  C   UNL     1       7.940 -19.669 -45.075  1.00  0.00     0.164 C 
ATOM     26  O   UNL     1       9.138 -20.127 -44.439  1.00  0.00    -0.377 OA
ENDBRANCH  21  22
ENDBRANCH  13  21
BRANCH  16  27
ATOM     27  N   UNL     1       1.153 -16.861 -41.470  1.00  0.00    -0.340 N 
ATOM     28  H   UNL     1       1.686 -16.132 -41.007  1.00  0.00     0.168 HD
BRANCH  27  29
ATOM     29  C   UNL     1       0.624 -16.425 -42.706  1.00  0.00     0.041 A 
ATOM     30  C   UNL     1      -0.539 -17.043 -43.197  1.00  0.00     0.029 A 
ATOM     31  C   UNL     1       1.267 -15.483 -43.520  1.00  0.00     0.049 A 
ATOM     32  C   UNL     1      -1.078 -16.686 -44.436  1.00  0.00     0.043 A 
ATOM     33  C   UNL     1       0.731 -15.126 -44.760  1.00  0.00     0.078 A 
ATOM     34  C   UNL     1      -0.441 -15.725 -45.209  1.00  0.00     0.141 A 
ATOM     35  Cl  UNL     1       1.537 -13.950 -45.727  1.00  0.00    -0.081 Cl
ATOM     36  F   UNL     1      -0.972 -15.398 -46.397  1.00  0.00    -0.205 F 
ENDBRANCH  27  29
ENDBRANCH  16  27
ENDBRANCH   3  11
TORSDOF 8
ENDMDL
MODEL 10
REMARK VINA RESULT:    -7.613      4.130      5.538
REMARK INTER + INTRA:         -12.518
REMARK INTER:                 -11.379
REMARK INTRA:                  -1.139
REMARK UNBOUND:                -1.344
REMARK SMILES CN(C)C/C=C/C(=O)Nc1cc2c(Nc3ccc(F)c(Cl)c3)ncnc2cc1O[C@H]1CCOC1
REMARK SMILES IDX 7 1 8 2 9 3 6 5 5 6 4 7 2 8 1 9 3 10 10 11 11 12 28 13 12 14
REMARK SMILES IDX 27 15 13 16 26 17 23 18 25 19 24 20 29 21 30 22 31 23 34 24
REMARK SMILES IDX 32 25 33 26 14 27 15 29 16 30 22 31 17 32 20 33 18 34 21 35
REMARK SMILES IDX 19 36
REMARK H PARENT 9 4 14 28
ROOT
ATOM      1  C   UNL     1       2.142 -11.837 -45.474  1.00  0.00     0.248 C 
ATOM      2  O   UNL     1       1.337 -11.819 -46.398  1.00  0.00    -0.270 OA
ATOM      3  N   UNL     1       2.460 -10.802 -44.631  1.00  0.00    -0.319 N 
ATOM      4  H   UNL     1       3.034 -11.007 -43.819  1.00  0.00     0.170 HD
ENDROOT
BRANCH   1   5
ATOM      5  C   UNL     1       2.813 -13.122 -45.134  1.00  0.00     0.068 C 
ATOM      6  C   UNL     1       4.003 -13.495 -45.635  1.00  0.00    -0.006 C 
BRANCH   6   7
ATOM      7  C   UNL     1       4.780 -14.766 -45.411  1.00  0.00     0.111 C 
BRANCH   7   8
ATOM      8  N   UNL     1       5.884 -15.153 -46.276  1.00  0.00    -0.306 NA
ATOM      9  C   UNL     1       5.587 -16.235 -47.201  1.00  0.00     0.105 C 
ATOM     10  C   UNL     1       7.171 -15.296 -45.614  1.00  0.00     0.105 C 
ENDBRANCH   7   8
ENDBRANCH   6   7
ENDBRANCH   1   5
BRANCH   3  11
ATOM     11  C   UNL     1       2.031  -9.460 -44.699  1.00  0.00     0.085 A 
ATOM     12  C   UNL     1       0.716  -9.084 -44.968  1.00  0.00     0.044 A 
ATOM     13  C   UNL     1       3.001  -8.464 -44.498  1.00  0.00     0.145 A 
ATOM     14  C   UNL     1       0.342  -7.717 -45.021  1.00  0.00     0.045 A 
ATOM     15  C   UNL     1       2.632  -7.120 -44.581  1.00  0.00     0.077 A 
ATOM     16  C   UNL     1      -0.964  -7.240 -45.259  1.00  0.00     0.141 A 
ATOM     17  C   UNL     1       1.322  -6.734 -44.834  1.00  0.00     0.080 A 
ATOM     18  N   UNL     1      -1.235  -5.924 -45.323  1.00  0.00    -0.219 NA
ATOM     19  N   UNL     1       1.054  -5.427 -44.888  1.00  0.00    -0.236 NA
ATOM     20  C   UNL     1      -0.215  -5.084 -45.136  1.00  0.00     0.224 A 
BRANCH  13  21
ATOM     21  O   UNL     1       4.268  -8.927 -44.237  1.00  0.00    -0.486 OA
BRANCH  21  22
ATOM     22  C   UNL     1       5.377  -8.030 -44.392  1.00  0.00     0.201 C 
ATOM     23  C   UNL     1       5.892  -7.704 -43.006  1.00  0.00     0.076 C 
ATOM     24  C   UNL     1       6.580  -8.739 -45.003  1.00  0.00     0.205 C 
ATOM     25  C   UNL     1       6.745  -8.913 -42.687  1.00  0.00     0.164 C 
ATOM     26  O   UNL     1       7.315  -9.352 -43.925  1.00  0.00    -0.377 OA
ENDBRANCH  21  22
ENDBRANCH  13  21
BRANCH  16  27
ATOM     27  N   UNL     1      -2.017  -8.178 -45.441  1.00  0.00    -0.340 N 
ATOM     28  H   UNL     1      -1.692  -8.940 -46.027  1.00  0.00     0.168 HD
BRANCH  27  29
ATOM     29  C   UNL     1      -3.002  -8.602 -44.520  1.00  0.00     0.041 A 
ATOM     30  C   UNL     1      -3.181  -9.980 -44.311  1.00  0.00     0.029 A 
ATOM     31  C   UNL     1      -3.885  -7.716 -43.888  1.00  0.00     0.049 A 
ATOM     32  C   UNL     1      -4.173 -10.457 -43.450  1.00  0.00     0.043 A 
ATOM     33  C   UNL     1      -4.879  -8.191 -43.027  1.00  0.00     0.078 A 
ATOM     34  C   UNL     1      -5.014  -9.558 -42.808  1.00  0.00     0.141 A 
ATOM     35  Cl  UNL     1      -5.935  -7.074 -42.251  1.00  0.00    -0.081 Cl
ATOM     36  F   UNL     1      -5.961 -10.035 -41.988  1.00  0.00    -0.205 F 
ENDBRANCH  27  29
ENDBRANCH  16  27
ENDBRANCH   3  11
TORSDOF 8
ENDMDL
MODEL 11
REMARK VINA RESULT:    -7.556      5.160      9.989
REMARK INTER + INTRA:         -12.434
REMARK INTER:                 -11.173
REMARK INTRA:                  -1.260
REMARK UNBOUND:                -1.344
REMARK SMILES CN(C)C/C=C/C(=O)Nc1cc2c(Nc3ccc(F)c(Cl)c3)ncnc2cc1O[C@H]1CCOC1
REMARK SMILES IDX 7 1 8 2 9 3 6 5 5 6 4 7 2 8 1 9 3 10 10 11 11 12 28 13 12 14
REMARK SMILES IDX 27 15 13 16 26 17 23 18 25 19 24 20 29 21 30 22 31 23 34 24
REMARK SMILES IDX 32 25 33 26 14 27 15 29 16 30 22 31 17 32 20 33 18 34 21 35
REMARK SMILES IDX 19 36
REMARK H PARENT 9 4 14 28
ROOT
ATOM      1  C   UNL     1       5.174 -15.681 -44.852  1.00  0.00     0.248 C 
ATOM      2  O   UNL     1       5.257 -15.513 -43.641  1.00  0.00    -0.270 OA
ATOM      3  N   UNL     1       5.551 -16.792 -45.563  1.00  0.00    -0.319 N 
ATOM      4  H   UNL     1       5.285 -16.847 -46.540  1.00  0.00     0.170 HD
ENDROOT
BRANCH   1   5
ATOM      5  C   UNL     1       4.521 -14.628 -45.678  1.00  0.00     0.068 C 
ATOM      6  C   UNL     1       3.552 -13.817 -45.220  1.00  0.00    -0.006 C 
BRANCH   6   7
ATOM      7  C   UNL     1       2.783 -12.742 -45.942  1.00  0.00     0.111 C 
BRANCH   7   8
ATOM      8  N   UNL     1       1.531 -13.023 -46.628  1.00  0.00    -0.306 NA
ATOM      9  C   UNL     1       0.457 -12.081 -46.353  1.00  0.00     0.105 C 
ATOM     10  C   UNL     1       1.102 -14.412 -46.594  1.00  0.00     0.105 C 
ENDBRANCH   7   8
ENDBRANCH   6   7
ENDBRANCH   1   5
BRANCH   3  11
ATOM     11  C   UNL     1       6.222 -17.941 -45.091  1.00  0.00     0.085 A 
ATOM     12  C   UNL     1       5.582 -18.996 -44.444  1.00  0.00     0.044 A 
ATOM     13  C   UNL     1       7.612 -17.996 -45.283  1.00  0.00     0.145 A 
ATOM     14  C   UNL     1       6.309 -20.127 -43.994  1.00  0.00     0.045 A 
ATOM     15  C   UNL     1       8.327 -19.099 -44.812  1.00  0.00     0.077 A 
ATOM     16  C   UNL     1       5.748 -21.253 -43.355  1.00  0.00     0.141 A 
ATOM     17  C   UNL     1       7.697 -20.163 -44.177  1.00  0.00     0.080 A 
ATOM     18  N   UNL     1       6.510 -22.277 -42.931  1.00  0.00    -0.219 NA
ATOM     19  N   UNL     1       8.454 -21.183 -43.766  1.00  0.00    -0.236 NA
ATOM     20  C   UNL     1       7.823 -22.192 -43.155  1.00  0.00     0.224 A 
BRANCH  13  21
ATOM     21  O   UNL     1       8.157 -16.914 -45.932  1.00  0.00    -0.486 OA
BRANCH  21  22
ATOM     22  C   UNL     1       8.911 -15.960 -45.172  1.00  0.00     0.201 C 
ATOM     23  C   UNL     1      10.370 -16.148 -45.530  1.00  0.00     0.076 C 
ATOM     24  C   UNL     1       8.660 -14.539 -45.664  1.00  0.00     0.205 C 
ATOM     25  C   UNL     1      10.480 -15.391 -46.836  1.00  0.00     0.164 C 
ATOM     26  O   UNL     1       9.570 -14.289 -46.752  1.00  0.00    -0.377 OA
ENDBRANCH  21  22
ENDBRANCH  13  21
BRANCH  16  27
ATOM     27  N   UNL     1       4.342 -21.298 -43.149  1.00  0.00    -0.340 N 
ATOM     28  H   UNL     1       4.006 -22.240 -43.328  1.00  0.00     0.168 HD
BRANCH  27  29
ATOM     29  C   UNL     1       3.562 -20.634 -42.177  1.00  0.00     0.041 A 
ATOM     30  C   UNL     1       4.207 -19.792 -41.254  1.00  0.00     0.029 A 
ATOM     31  C   UNL     1       2.188 -20.861 -42.017  1.00  0.00     0.049 A 
ATOM     32  C   UNL     1       3.492 -19.149 -40.241  1.00  0.00     0.043 A 
ATOM     33  C   UNL     1       1.471 -20.219 -41.003  1.00  0.00     0.078 A 
ATOM     34  C   UNL     1       2.125 -19.363 -40.124  1.00  0.00     0.141 A 
ATOM     35  Cl  UNL     1      -0.220 -20.506 -40.848  1.00  0.00    -0.081 Cl
ATOM     36  F   UNL     1       1.456 -18.739 -39.143  1.00  0.00    -0.205 F 
ENDBRANCH  27  29
ENDBRANCH  16  27
ENDBRANCH   3  11
TORSDOF 8
ENDMDL
MODEL 12
REMARK VINA RESULT:    -7.540      4.737      8.021
REMARK INTER + INTRA:         -12.411
REMARK INTER:                 -10.915
REMARK INTRA:                  -1.496
REMARK UNBOUND:                -1.344
REMARK SMILES CN(C)C/C=C/C(=O)Nc1cc2c(Nc3ccc(F)c(Cl)c3)ncnc2cc1O[C@H]1CCOC1
REMARK SMILES IDX 7 1 8 2 9 3 6 5 5 6 4 7 2 8 1 9 3 10 10 11 11 12 28 13 12 14
REMARK SMILES IDX 27 15 13 16 26 17 23 18 25 19 24 20 29 21 30 22 31 23 34 24
REMARK SMILES IDX 32 25 33 26 14 27 15 29 16 30 22 31 17 32 20 33 18 34 21 35
REMARK SMILES IDX 19 36
REMARK H PARENT 9 4 14 28
ROOT
ATOM      1  C   UNL     1       0.626 -10.940 -43.940  1.00  0.00     0.248 C 
ATOM      2  O   UNL     1       1.162 -10.618 -42.886  1.00  0.00    -0.270 OA
ATOM      3  N   UNL     1       0.493 -10.175 -45.071  1.00  0.00    -0.319 N 
ATOM      4  H   UNL     1       0.159 -10.626 -45.916  1.00  0.00     0.170 HD
ENDROOT
BRANCH   1   5
ATOM      5  C   UNL     1       0.121 -12.333 -44.090  1.00  0.00     0.068 C 
ATOM      6  C   UNL     1       0.725 -13.405 -43.549  1.00  0.00    -0.006 C 
BRANCH   6   7
ATOM      7  C   UNL     1       0.354 -14.862 -43.644  1.00  0.00     0.111 C 
BRANCH   7   8
ATOM      8  N   UNL     1      -0.316 -15.409 -44.815  1.00  0.00    -0.306 NA
ATOM      9  C   UNL     1      -1.013 -16.665 -44.590  1.00  0.00     0.105 C 
ATOM     10  C   UNL     1       0.465 -15.393 -46.041  1.00  0.00     0.105 C 
ENDBRANCH   7   8
ENDBRANCH   6   7
ENDBRANCH   1   5
BRANCH   3  11
ATOM     11  C   UNL     1       0.833  -8.817 -45.248  1.00  0.00     0.085 A 
ATOM     12  C   UNL     1       2.137  -8.368 -45.447  1.00  0.00     0.044 A 
ATOM     13  C   UNL     1      -0.215  -7.882 -45.202  1.00  0.00     0.145 A 
ATOM     14  C   UNL     1       2.417  -6.989 -45.623  1.00  0.00     0.045 A 
ATOM     15  C   UNL     1       0.072  -6.523 -45.346  1.00  0.00     0.077 A 
ATOM     16  C   UNL     1       3.697  -6.443 -45.856  1.00  0.00     0.141 A 
ATOM     17  C   UNL     1       1.366  -6.065 -45.560  1.00  0.00     0.080 A 
ATOM     18  N   UNL     1       3.887  -5.118 -45.984  1.00  0.00    -0.219 NA
ATOM     19  N   UNL     1       1.551  -4.750 -45.695  1.00  0.00    -0.236 NA
ATOM     20  C   UNL     1       2.807  -4.338 -45.896  1.00  0.00     0.224 A 
BRANCH  13  21
ATOM     21  O   UNL     1      -1.466  -8.415 -45.004  1.00  0.00    -0.486 OA
BRANCH  21  22
ATOM     22  C   UNL     1      -2.051  -8.337 -43.697  1.00  0.00     0.201 C 
ATOM     23  C   UNL     1      -3.203  -7.358 -43.774  1.00  0.00     0.076 C 
ATOM     24  C   UNL     1      -2.776  -9.629 -43.339  1.00  0.00     0.205 C 
ATOM     25  C   UNL     1      -4.308  -8.208 -44.362  1.00  0.00     0.164 C 
ATOM     26  O   UNL     1      -4.113  -9.537 -43.868  1.00  0.00    -0.377 OA
ENDBRANCH  21  22
ENDBRANCH  13  21
BRANCH  16  27
ATOM     27  N   UNL     1       4.813  -7.319 -45.952  1.00  0.00    -0.340 N 
ATOM     28  H   UNL     1       5.437  -6.991 -46.682  1.00  0.00     0.168 HD
BRANCH  27  29
ATOM     29  C   UNL     1       5.510  -7.989 -44.922  1.00  0.00     0.041 A 
ATOM     30  C   UNL     1       5.588  -7.384 -43.655  1.00  0.00     0.029 A 
ATOM     31  C   UNL     1       6.224  -9.177 -45.132  1.00  0.00     0.049 A 
ATOM     32  C   UNL     1       6.306  -7.977 -42.614  1.00  0.00     0.043 A 
ATOM     33  C   UNL     1       6.944  -9.772 -44.092  1.00  0.00     0.078 A 
ATOM     34  C   UNL     1       6.977  -9.172 -42.838  1.00  0.00     0.141 A 
ATOM     35  Cl  UNL     1       7.793 -11.242 -44.381  1.00  0.00    -0.081 Cl
ATOM     36  F   UNL     1       7.663  -9.725 -41.827  1.00  0.00    -0.205 F 
ENDBRANCH  27  29
ENDBRANCH  16  27
ENDBRANCH   3  11
TORSDOF 8
ENDMDL
MODEL 13
REMARK VINA RESULT:    -7.488      4.933      8.118
REMARK INTER + INTRA:         -12.334
REMARK INTER:                 -11.068
REMARK INTRA:                  -1.265
REMARK UNBOUND:                -1.344
REMARK SMILES CN(C)C/C=C/C(=O)Nc1cc2c(Nc3ccc(F)c(Cl)c3)ncnc2cc1O[C@H]1CCOC1
REMARK SMILES IDX 7 1 8 2 9 3 6 5 5 6 4 7 2 8 1 9 3 10 10 11 11 12 28 13 12 14
REMARK SMILES IDX 27 15 13 16 26 17 23 18 25 19 24 20 29 21 30 22 31 23 34 24
REMARK SMILES IDX 32 25 33 26 14 27 15 29 16 30 22 31 17 32 20 33 18 34 21 35
REMARK SMILES IDX 19 36
REMARK H PARENT 9 4 14 28
ROOT
ATOM      1  C   UNL     1       0.672 -13.373 -46.708  1.00  0.00     0.248 C 
ATOM      2  O   UNL     1       0.715 -12.951 -47.858  1.00  0.00    -0.270 OA
ATOM      3  N   UNL     1       1.206 -12.787 -45.589  1.00  0.00    -0.319 N 
ATOM      4  H   UNL     1       0.964 -13.176 -44.684  1.00  0.00     0.170 HD
ENDROOT
BRANCH   1   5
ATOM      5  C   UNL     1      -0.105 -14.612 -46.428  1.00  0.00     0.068 C 
ATOM      6  C   UNL     1      -0.002 -15.312 -45.286  1.00  0.00    -0.006 C 
BRANCH   6   7
ATOM      7  C   UNL     1      -0.691 -16.589 -44.880  1.00  0.00     0.111 C 
BRANCH   7   8
ATOM      8  N   UNL     1      -0.665 -17.073 -43.508  1.00  0.00    -0.306 NA
ATOM      9  C   UNL     1      -1.970 -17.375 -42.941  1.00  0.00     0.105 C 
ATOM     10  C   UNL     1       0.199 -16.330 -42.604  1.00  0.00     0.105 C 
ENDBRANCH   7   8
ENDBRANCH   6   7
ENDBRANCH   1   5
BRANCH   3  11
ATOM     11  C   UNL     1       2.020 -11.636 -45.513  1.00  0.00     0.085 A 
ATOM     12  C   UNL     1       3.412 -11.679 -45.471  1.00  0.00     0.044 A 
ATOM     13  C   UNL     1       1.370 -10.392 -45.463  1.00  0.00     0.145 A 
ATOM     14  C   UNL     1       4.179 -10.487 -45.398  1.00  0.00     0.045 A 
ATOM     15  C   UNL     1       2.129  -9.225 -45.362  1.00  0.00     0.077 A 
ATOM     16  C   UNL     1       5.588 -10.427 -45.377  1.00  0.00     0.141 A 
ATOM     17  C   UNL     1       3.518  -9.254 -45.333  1.00  0.00     0.080 A 
ATOM     18  N   UNL     1       6.244  -9.257 -45.277  1.00  0.00    -0.219 NA
ATOM     19  N   UNL     1       4.167  -8.090 -45.244  1.00  0.00    -0.236 NA
ATOM     20  C   UNL     1       5.503  -8.149 -45.214  1.00  0.00     0.224 A 
BRANCH  13  21
ATOM     21  O   UNL     1      -0.002 -10.447 -45.513  1.00  0.00    -0.486 OA
BRANCH  21  22
ATOM     22  C   UNL     1      -0.752  -9.261 -45.218  1.00  0.00     0.201 C 
ATOM     23  C   UNL     1      -2.074  -9.368 -45.947  1.00  0.00     0.076 C 
ATOM     24  C   UNL     1      -1.210  -9.244 -43.764  1.00  0.00     0.205 C 
ATOM     25  C   UNL     1      -2.877 -10.263 -45.028  1.00  0.00     0.164 C 
ATOM     26  O   UNL     1      -2.455  -9.966 -43.693  1.00  0.00    -0.377 OA
ENDBRANCH  21  22
ENDBRANCH  13  21
BRANCH  16  27
ATOM     27  N   UNL     1       6.330 -11.637 -45.458  1.00  0.00    -0.340 N 
ATOM     28  H   UNL     1       6.498 -11.865 -46.433  1.00  0.00     0.168 HD
BRANCH  27  29
ATOM     29  C   UNL     1       7.368 -12.103 -44.620  1.00  0.00     0.041 A 
ATOM     30  C   UNL     1       8.438 -12.808 -45.199  1.00  0.00     0.029 A 
ATOM     31  C   UNL     1       7.327 -11.995 -43.223  1.00  0.00     0.049 A 
ATOM     32  C   UNL     1       9.466 -13.334 -44.413  1.00  0.00     0.043 A 
ATOM     33  C   UNL     1       8.354 -12.522 -42.435  1.00  0.00     0.078 A 
ATOM     34  C   UNL     1       9.420 -13.184 -43.034  1.00  0.00     0.141 A 
ATOM     35  Cl  UNL     1       8.280 -12.353 -40.722  1.00  0.00    -0.081 Cl
ATOM     36  F   UNL     1      10.414 -13.698 -42.296  1.00  0.00    -0.205 F 
ENDBRANCH  27  29
ENDBRANCH  16  27
ENDBRANCH   3  11
TORSDOF 8
ENDMDL
MODEL 14
REMARK VINA RESULT:    -7.466      4.827      9.365
REMARK INTER + INTRA:         -12.303
REMARK INTER:                 -10.685
REMARK INTRA:                  -1.617
REMARK UNBOUND:                -1.344
REMARK SMILES CN(C)C/C=C/C(=O)Nc1cc2c(Nc3ccc(F)c(Cl)c3)ncnc2cc1O[C@H]1CCOC1
REMARK SMILES IDX 7 1 8 2 9 3 6 5 5 6 4 7 2 8 1 9 3 10 10 11 11 12 28 13 12 14
REMARK SMILES IDX 27 15 13 16 26 17 23 18 25 19 24 20 29 21 30 22 31 23 34 24
REMARK SMILES IDX 32 25 33 26 14 27 15 29 16 30 22 31 17 32 20 33 18 34 21 35
REMARK SMILES IDX 19 36
REMARK H PARENT 9 4 14 28
ROOT
ATOM      1  C   UNL     1       3.808 -15.403 -44.552  1.00  0.00     0.248 C 
ATOM      2  O   UNL     1       3.439 -15.414 -43.383  1.00  0.00    -0.270 OA
ATOM      3  N   UNL     1       4.885 -16.063 -45.088  1.00  0.00    -0.319 N 
ATOM      4  H   UNL     1       4.980 -16.080 -46.098  1.00  0.00     0.170 HD
ENDROOT
BRANCH   1   5
ATOM      5  C   UNL     1       2.982 -14.679 -45.557  1.00  0.00     0.068 C 
ATOM      6  C   UNL     1       1.638 -14.671 -45.548  1.00  0.00    -0.006 C 
BRANCH   6   7
ATOM      7  C   UNL     1       0.678 -14.019 -46.509  1.00  0.00     0.111 C 
BRANCH   7   8
ATOM      8  N   UNL     1      -0.302 -13.038 -46.069  1.00  0.00    -0.306 NA
ATOM      9  C   UNL     1      -0.827 -12.182 -47.121  1.00  0.00     0.105 C 
ATOM     10  C   UNL     1       0.044 -12.316 -44.855  1.00  0.00     0.105 C 
ENDBRANCH   7   8
ENDBRANCH   6   7
ENDBRANCH   1   5
BRANCH   3  11
ATOM     11  C   UNL     1       5.877 -16.803 -44.411  1.00  0.00     0.085 A 
ATOM     12  C   UNL     1       5.638 -18.030 -43.796  1.00  0.00     0.044 A 
ATOM     13  C   UNL     1       7.165 -16.246 -44.353  1.00  0.00     0.145 A 
ATOM     14  C   UNL     1       6.677 -18.731 -43.132  1.00  0.00     0.045 A 
ATOM     15  C   UNL     1       8.177 -16.927 -43.672  1.00  0.00     0.077 A 
ATOM     16  C   UNL     1       6.539 -19.988 -42.506  1.00  0.00     0.141 A 
ATOM     17  C   UNL     1       7.954 -18.159 -43.068  1.00  0.00     0.080 A 
ATOM     18  N   UNL     1       7.568 -20.577 -41.870  1.00  0.00    -0.219 NA
ATOM     19  N   UNL     1       8.979 -18.745 -42.446  1.00  0.00    -0.236 NA
ATOM     20  C   UNL     1       8.734 -19.928 -41.870  1.00  0.00     0.224 A 
BRANCH  13  21
ATOM     21  O   UNL     1       7.309 -15.036 -44.988  1.00  0.00    -0.486 OA
BRANCH  21  22
ATOM     22  C   UNL     1       7.741 -13.902 -44.223  1.00  0.00     0.201 C 
ATOM     23  C   UNL     1       7.595 -12.680 -45.106  1.00  0.00     0.076 C 
ATOM     24  C   UNL     1       6.758 -13.584 -43.102  1.00  0.00     0.205 C 
ATOM     25  C   UNL     1       6.119 -12.368 -44.981  1.00  0.00     0.164 C 
ATOM     26  O   UNL     1       5.731 -12.737 -43.653  1.00  0.00    -0.377 OA
ENDBRANCH  21  22
ENDBRANCH  13  21
BRANCH  16  27
ATOM     27  N   UNL     1       5.277 -20.642 -42.545  1.00  0.00    -0.340 N 
ATOM     28  H   UNL     1       5.420 -21.646 -42.587  1.00  0.00     0.168 HD
BRANCH  27  29
ATOM     29  C   UNL     1       4.079 -20.306 -41.876  1.00  0.00     0.041 A 
ATOM     30  C   UNL     1       4.138 -19.408 -40.796  1.00  0.00     0.029 A 
ATOM     31  C   UNL     1       2.849 -20.911 -42.167  1.00  0.00     0.049 A 
ATOM     32  C   UNL     1       2.992 -19.078 -40.067  1.00  0.00     0.043 A 
ATOM     33  C   UNL     1       1.701 -20.583 -41.439  1.00  0.00     0.078 A 
ATOM     34  C   UNL     1       1.778 -19.665 -40.397  1.00  0.00     0.141 A 
ATOM     35  Cl  UNL     1       0.202 -21.331 -41.836  1.00  0.00    -0.081 Cl
ATOM     36  F   UNL     1       0.690 -19.338 -39.685  1.00  0.00    -0.205 F 
ENDBRANCH  27  29
ENDBRANCH  16  27
ENDBRANCH   3  11
TORSDOF 8
ENDMDL
MODEL 15
REMARK VINA RESULT:    -7.446      5.598      8.034
REMARK INTER + INTRA:         -12.273
REMARK INTER:                 -10.759
REMARK INTRA:                  -1.514
REMARK UNBOUND:                -1.344
REMARK SMILES CN(C)C/C=C/C(=O)Nc1cc2c(Nc3ccc(F)c(Cl)c3)ncnc2cc1O[C@H]1CCOC1
REMARK SMILES IDX 7 1 8 2 9 3 6 5 5 6 4 7 2 8 1 9 3 10 10 11 11 12 28 13 12 14
REMARK SMILES IDX 27 15 13 16 26 17 23 18 25 19 24 20 29 21 30 22 31 23 34 24
REMARK SMILES IDX 32 25 33 26 14 27 15 29 16 30 22 31 17 32 20 33 18 34 21 35
REMARK SMILES IDX 19 36
REMARK H PARENT 9 4 14 28
ROOT
ATOM      1  C   UNL     1       5.388 -16.257 -46.412  1.00  0.00     0.248 C 
ATOM      2  O   UNL     1       5.983 -15.845 -47.401  1.00  0.00    -0.270 OA
ATOM      3  N   UNL     1       4.610 -15.528 -45.548  1.00  0.00    -0.319 N 
ATOM      4  H   UNL     1       4.060 -16.032 -44.860  1.00  0.00     0.170 HD
ENDROOT
BRANCH   1   5
ATOM      5  C   UNL     1       5.411 -17.717 -46.118  1.00  0.00     0.068 C 
ATOM      6  C   UNL     1       5.886 -18.238 -44.974  1.00  0.00    -0.006 C 
BRANCH   6   7
ATOM      7  C   UNL     1       6.006 -19.680 -44.556  1.00  0.00     0.111 C 
BRANCH   7   8
ATOM      8  N   UNL     1       5.753 -20.106 -43.187  1.00  0.00    -0.306 NA
ATOM      9  C   UNL     1       4.565 -20.926 -43.010  1.00  0.00     0.105 C 
ATOM     10  C   UNL     1       5.894 -19.068 -42.178  1.00  0.00     0.105 C 
ENDBRANCH   7   8
ENDBRANCH   6   7
ENDBRANCH   1   5
BRANCH   3  11
ATOM     11  C   UNL     1       4.407 -14.132 -45.526  1.00  0.00     0.085 A 
ATOM     12  C   UNL     1       5.417 -13.211 -45.253  1.00  0.00     0.044 A 
ATOM     13  C   UNL     1       3.106 -13.668 -45.781  1.00  0.00     0.145 A 
ATOM     14  C   UNL     1       5.154 -11.817 -45.248  1.00  0.00     0.045 A 
ATOM     15  C   UNL     1       2.848 -12.296 -45.745  1.00  0.00     0.077 A 
ATOM     16  C   UNL     1       6.113 -10.810 -45.010  1.00  0.00     0.141 A 
ATOM     17  C   UNL     1       3.850 -11.368 -45.488  1.00  0.00     0.080 A 
ATOM     18  N   UNL     1       5.780  -9.507 -44.993  1.00  0.00    -0.219 NA
ATOM     19  N   UNL     1       3.518 -10.075 -45.482  1.00  0.00    -0.236 NA
ATOM     20  C   UNL     1       4.501  -9.204 -45.228  1.00  0.00     0.224 A 
BRANCH  13  21
ATOM     21  O   UNL     1       2.177 -14.646 -46.042  1.00  0.00    -0.486 OA
BRANCH  21  22
ATOM     22  C   UNL     1       0.806 -14.407 -45.693  1.00  0.00     0.201 C 
ATOM     23  C   UNL     1       0.020 -14.320 -46.984  1.00  0.00     0.076 C 
ATOM     24  C   UNL     1       0.181 -15.634 -45.040  1.00  0.00     0.205 C 
ATOM     25  C   UNL     1      -0.186 -15.778 -47.334  1.00  0.00     0.164 C 
ATOM     26  O   UNL     1      -0.307 -16.486 -46.095  1.00  0.00    -0.377 OA
ENDBRANCH  21  22
ENDBRANCH  13  21
BRANCH  16  27
ATOM     27  N   UNL     1       7.464 -11.187 -44.776  1.00  0.00    -0.340 N 
ATOM     28  H   UNL     1       8.082 -10.500 -45.197  1.00  0.00     0.168 HD
BRANCH  27  29
ATOM     29  C   UNL     1       8.037 -11.783 -43.631  1.00  0.00     0.041 A 
ATOM     30  C   UNL     1       9.160 -12.613 -43.793  1.00  0.00     0.029 A 
ATOM     31  C   UNL     1       7.472 -11.677 -42.353  1.00  0.00     0.049 A 
ATOM     32  C   UNL     1       9.737 -13.268 -42.702  1.00  0.00     0.043 A 
ATOM     33  C   UNL     1       8.047 -12.332 -41.260  1.00  0.00     0.078 A 
ATOM     34  C   UNL     1       9.180 -13.120 -41.440  1.00  0.00     0.141 A 
ATOM     35  Cl  UNL     1       7.338 -12.163 -39.700  1.00  0.00    -0.081 Cl
ATOM     36  F   UNL     1       9.746 -13.758 -40.405  1.00  0.00    -0.205 F 
ENDBRANCH  27  29
ENDBRANCH  16  27
ENDBRANCH   3  11
TORSDOF 8
ENDMDL
MODEL 16
REMARK VINA RESULT:    -7.437      3.988      8.612
REMARK INTER + INTRA:         -12.260
REMARK INTER:                 -11.353
REMARK INTRA:                  -0.907
REMARK UNBOUND:                -1.344
REMARK SMILES CN(C)C/C=C/C(=O)Nc1cc2c(Nc3ccc(F)c(Cl)c3)ncnc2cc1O[C@H]1CCOC1
REMARK SMILES IDX 7 1 8 2 9 3 6 5 5 6 4 7 2 8 1 9 3 10 10 11 11 12 28 13 12 14
REMARK SMILES IDX 27 15 13 16 26 17 23 18 25 19 24 20 29 21 30 22 31 23 34 24
REMARK SMILES IDX 32 25 33 26 14 27 15 29 16 30 22 31 17 32 20 33 18 34 21 35
REMARK SMILES IDX 19 36
REMARK H PARENT 9 4 14 28
ROOT
ATOM      1  C   UNL     1      -0.636 -11.382 -45.925  1.00  0.00     0.248 C 
ATOM      2  O   UNL     1      -0.962 -12.356 -46.594  1.00  0.00    -0.270 OA
ATOM      3  N   UNL     1       0.509 -11.229 -45.186  1.00  0.00    -0.319 N 
ATOM      4  H   UNL     1       0.713 -10.311 -44.805  1.00  0.00     0.170 HD
ENDROOT
BRANCH   1   5
ATOM      5  C   UNL     1      -1.504 -10.172 -45.951  1.00  0.00     0.068 C 
ATOM      6  C   UNL     1      -1.092  -8.953 -45.565  1.00  0.00    -0.006 C 
BRANCH   6   7
ATOM      7  C   UNL     1      -1.859  -7.658 -45.504  1.00  0.00     0.111 C 
BRANCH   7   8
ATOM      8  N   UNL     1      -1.788  -6.778 -44.347  1.00  0.00    -0.306 NA
ATOM      9  C   UNL     1      -3.058  -6.546 -43.676  1.00  0.00     0.105 C 
ATOM     10  C   UNL     1      -1.005  -5.568 -44.534  1.00  0.00     0.105 C 
ENDBRANCH   7   8
ENDBRANCH   6   7
ENDBRANCH   1   5
BRANCH   3  11
ATOM     11  C   UNL     1       1.514 -12.186 -44.929  1.00  0.00     0.085 A 
ATOM     12  C   UNL     1       1.295 -13.357 -44.206  1.00  0.00     0.044 A 
ATOM     13  C   UNL     1       2.800 -11.916 -45.425  1.00  0.00     0.145 A 
ATOM     14  C   UNL     1       2.345 -14.285 -43.983  1.00  0.00     0.045 A 
ATOM     15  C   UNL     1       3.835 -12.819 -45.176  1.00  0.00     0.077 A 
ATOM     16  C   UNL     1       2.215 -15.507 -43.288  1.00  0.00     0.141 A 
ATOM     17  C   UNL     1       3.626 -13.997 -44.469  1.00  0.00     0.080 A 
ATOM     18  N   UNL     1       3.267 -16.322 -43.092  1.00  0.00    -0.219 NA
ATOM     19  N   UNL     1       4.669 -14.809 -44.283  1.00  0.00    -0.236 NA
ATOM     20  C   UNL     1       4.440 -15.933 -43.596  1.00  0.00     0.224 A 
BRANCH  13  21
ATOM     21  O   UNL     1       2.921 -10.741 -46.127  1.00  0.00    -0.486 OA
BRANCH  21  22
ATOM     22  C   UNL     1       3.529  -9.612 -45.484  1.00  0.00     0.201 C 
ATOM     23  C   UNL     1       4.820  -9.316 -46.217  1.00  0.00     0.076 C 
ATOM     24  C   UNL     1       2.736  -8.336 -45.742  1.00  0.00     0.205 C 
ATOM     25  C   UNL     1       4.336  -8.537 -47.420  1.00  0.00     0.164 C 
ATOM     26  O   UNL     1       3.195  -7.785 -46.992  1.00  0.00    -0.377 OA
ENDBRANCH  21  22
ENDBRANCH  13  21
BRANCH  16  27
ATOM     27  N   UNL     1       0.941 -15.878 -42.780  1.00  0.00    -0.340 N 
ATOM     28  H   UNL     1       0.217 -15.376 -43.285  1.00  0.00     0.168 HD
BRANCH  27  29
ATOM     29  C   UNL     1       0.494 -17.142 -42.334  1.00  0.00     0.041 A 
ATOM     30  C   UNL     1      -0.798 -17.566 -42.692  1.00  0.00     0.029 A 
ATOM     31  C   UNL     1       1.234 -17.947 -41.457  1.00  0.00     0.049 A 
ATOM     32  C   UNL     1      -1.311 -18.784 -42.239  1.00  0.00     0.043 A 
ATOM     33  C   UNL     1       0.723 -19.165 -41.001  1.00  0.00     0.078 A 
ATOM     34  C   UNL     1      -0.544 -19.580 -41.398  1.00  0.00     0.141 A 
ATOM     35  Cl  UNL     1       1.668 -20.138 -39.939  1.00  0.00    -0.081 Cl
ATOM     36  F   UNL     1      -1.054 -20.744 -40.970  1.00  0.00    -0.205 F 
ENDBRANCH  27  29
ENDBRANCH  16  27
ENDBRANCH   3  11
TORSDOF 8
ENDMDL
MODEL 17
REMARK VINA RESULT:    -7.419      5.989      9.088
REMARK INTER + INTRA:         -12.233
REMARK INTER:                 -10.986
REMARK INTRA:                  -1.247
REMARK UNBOUND:                -1.344
REMARK SMILES CN(C)C/C=C/C(=O)Nc1cc2c(Nc3ccc(F)c(Cl)c3)ncnc2cc1O[C@H]1CCOC1
REMARK SMILES IDX 7 1 8 2 9 3 6 5 5 6 4 7 2 8 1 9 3 10 10 11 11 12 28 13 12 14
REMARK SMILES IDX 27 15 13 16 26 17 23 18 25 19 24 20 29 21 30 22 31 23 34 24
REMARK SMILES IDX 32 25 33 26 14 27 15 29 16 30 22 31 17 32 20 33 18 34 21 35
REMARK SMILES IDX 19 36
REMARK H PARENT 9 4 14 28
ROOT
ATOM      1  C   UNL     1       4.899 -16.547 -42.610  1.00  0.00     0.248 C 
ATOM      2  O   UNL     1       6.011 -16.882 -43.001  1.00  0.00    -0.270 OA
ATOM      3  N   UNL     1       4.234 -15.382 -42.900  1.00  0.00    -0.319 N 
ATOM      4  H   UNL     1       3.259 -15.308 -42.627  1.00  0.00     0.170 HD
ENDROOT
BRANCH   1   5
ATOM      5  C   UNL     1       4.104 -17.510 -41.799  1.00  0.00     0.068 C 
ATOM      6  C   UNL     1       2.769 -17.442 -41.661  1.00  0.00    -0.006 C 
BRANCH   6   7
ATOM      7  C   UNL     1       1.844 -18.315 -40.854  1.00  0.00     0.111 C 
BRANCH   7   8
ATOM      8  N   UNL     1       1.190 -19.481 -41.429  1.00  0.00    -0.306 NA
ATOM      9  C   UNL     1      -0.202 -19.655 -41.044  1.00  0.00     0.105 C 
ATOM     10  C   UNL     1       1.961 -20.713 -41.381  1.00  0.00     0.105 C 
ENDBRANCH   7   8
ENDBRANCH   6   7
ENDBRANCH   1   5
BRANCH   3  11
ATOM     11  C   UNL     1       4.712 -14.260 -43.609  1.00  0.00     0.085 A 
ATOM     12  C   UNL     1       5.974 -13.703 -43.409  1.00  0.00     0.044 A 
ATOM     13  C   UNL     1       3.848 -13.680 -44.551  1.00  0.00     0.145 A 
ATOM     14  C   UNL     1       6.402 -12.575 -44.154  1.00  0.00     0.045 A 
ATOM     15  C   UNL     1       4.264 -12.551 -45.261  1.00  0.00     0.077 A 
ATOM     16  C   UNL     1       7.666 -11.958 -44.043  1.00  0.00     0.141 A 
ATOM     17  C   UNL     1       5.525 -11.996 -45.080  1.00  0.00     0.080 A 
ATOM     18  N   UNL     1       7.988 -10.871 -44.765  1.00  0.00    -0.219 NA
ATOM     19  N   UNL     1       5.845 -10.922 -45.806  1.00  0.00    -0.236 NA
ATOM     20  C   UNL     1       7.064 -10.406 -45.609  1.00  0.00     0.224 A 
BRANCH  13  21
ATOM     21  O   UNL     1       2.627 -14.296 -44.683  1.00  0.00    -0.486 OA
BRANCH  21  22
ATOM     22  C   UNL     1       1.441 -13.557 -44.361  1.00  0.00     0.201 C 
ATOM     23  C   UNL     1       0.712 -13.285 -45.660  1.00  0.00     0.076 C 
ATOM     24  C   UNL     1       0.430 -14.427 -43.624  1.00  0.00     0.205 C 
ATOM     25  C   UNL     1      -0.011 -14.592 -45.903  1.00  0.00     0.164 C 
ATOM     26  O   UNL     1      -0.353 -15.119 -44.617  1.00  0.00    -0.377 OA
ENDBRANCH  21  22
ENDBRANCH  13  21
BRANCH  16  27
ATOM     27  N   UNL     1       8.618 -12.500 -43.136  1.00  0.00    -0.340 N 
ATOM     28  H   UNL     1       8.136 -12.884 -42.330  1.00  0.00     0.168 HD
BRANCH  27  29
ATOM     29  C   UNL     1       9.818 -13.192 -43.414  1.00  0.00     0.041 A 
ATOM     30  C   UNL     1      10.099 -13.550 -44.744  1.00  0.00     0.029 A 
ATOM     31  C   UNL     1      10.690 -13.638 -42.411  1.00  0.00     0.049 A 
ATOM     32  C   UNL     1      11.246 -14.278 -45.070  1.00  0.00     0.043 A 
ATOM     33  C   UNL     1      11.838 -14.368 -42.734  1.00  0.00     0.078 A 
ATOM     34  C   UNL     1      12.112 -14.679 -44.062  1.00  0.00     0.141 A 
ATOM     35  Cl  UNL     1      12.897 -14.883 -41.478  1.00  0.00    -0.081 Cl
ATOM     36  F   UNL     1      13.207 -15.379 -44.393  1.00  0.00    -0.205 F 
ENDBRANCH  27  29
ENDBRANCH  16  27
ENDBRANCH   3  11
TORSDOF 8
ENDMDL
MODEL 18
REMARK VINA RESULT:    -7.412      5.140      8.523
REMARK INTER + INTRA:         -12.223
REMARK INTER:                 -10.572
REMARK INTRA:                  -1.651
REMARK UNBOUND:                -1.344
REMARK SMILES CN(C)C/C=C/C(=O)Nc1cc2c(Nc3ccc(F)c(Cl)c3)ncnc2cc1O[C@H]1CCOC1
REMARK SMILES IDX 7 1 8 2 9 3 6 5 5 6 4 7 2 8 1 9 3 10 10 11 11 12 28 13 12 14
REMARK SMILES IDX 27 15 13 16 26 17 23 18 25 19 24 20 29 21 30 22 31 23 34 24
REMARK SMILES IDX 32 25 33 26 14 27 15 29 16 30 22 31 17 32 20 33 18 34 21 35
REMARK SMILES IDX 19 36
REMARK H PARENT 9 4 14 28
ROOT
ATOM      1  C   UNL     1       4.335 -14.843 -44.428  1.00  0.00     0.248 C 
ATOM      2  O   UNL     1       3.576 -15.347 -45.248  1.00  0.00    -0.270 OA
ATOM      3  N   UNL     1       4.859 -15.437 -43.308  1.00  0.00    -0.319 N 
ATOM      4  H   UNL     1       5.590 -14.946 -42.804  1.00  0.00     0.170 HD
ENDROOT
BRANCH   1   5
ATOM      5  C   UNL     1       4.841 -13.465 -44.674  1.00  0.00     0.068 C 
ATOM      6  C   UNL     1       6.131 -13.111 -44.538  1.00  0.00    -0.006 C 
BRANCH   6   7
ATOM      7  C   UNL     1       6.777 -11.762 -44.716  1.00  0.00     0.111 C 
BRANCH   7   8
ATOM      8  N   UNL     1       6.610 -10.696 -43.740  1.00  0.00    -0.306 NA
ATOM      9  C   UNL     1       6.469  -9.364 -44.308  1.00  0.00     0.105 C 
ATOM     10  C   UNL     1       7.514 -10.746 -42.603  1.00  0.00     0.105 C 
ENDBRANCH   7   8
ENDBRANCH   6   7
ENDBRANCH   1   5
BRANCH   3  11
ATOM     11  C   UNL     1       4.561 -16.710 -42.777  1.00  0.00     0.085 A 
ATOM     12  C   UNL     1       3.316 -17.055 -42.254  1.00  0.00     0.044 A 
ATOM     13  C   UNL     1       5.594 -17.661 -42.772  1.00  0.00     0.145 A 
ATOM     14  C   UNL     1       3.074 -18.353 -41.737  1.00  0.00     0.045 A 
ATOM     15  C   UNL     1       5.358 -18.928 -42.234  1.00  0.00     0.077 A 
ATOM     16  C   UNL     1       1.844 -18.803 -41.213  1.00  0.00     0.141 A 
ATOM     17  C   UNL     1       4.117 -19.288 -41.723  1.00  0.00     0.080 A 
ATOM     18  N   UNL     1       1.700 -20.043 -40.713  1.00  0.00    -0.219 NA
ATOM     19  N   UNL     1       3.975 -20.523 -41.236  1.00  0.00    -0.236 NA
ATOM     20  C   UNL     1       2.771 -20.840 -40.747  1.00  0.00     0.224 A 
BRANCH  13  21
ATOM     21  O   UNL     1       6.785 -17.234 -43.309  1.00  0.00    -0.486 OA
BRANCH  21  22
ATOM     22  C   UNL     1       7.381 -18.001 -44.364  1.00  0.00     0.201 C 
ATOM     23  C   UNL     1       6.583 -17.736 -45.623  1.00  0.00     0.076 C 
ATOM     24  C   UNL     1       8.746 -17.443 -44.749  1.00  0.00     0.205 C 
ATOM     25  C   UNL     1       7.147 -16.412 -46.089  1.00  0.00     0.164 C 
ATOM     26  O   UNL     1       8.530 -16.401 -45.721  1.00  0.00    -0.377 OA
ENDBRANCH  21  22
ENDBRANCH  13  21
BRANCH  16  27
ATOM     27  N   UNL     1       0.731 -17.918 -41.209  1.00  0.00    -0.340 N 
ATOM     28  H   UNL     1       1.063 -16.960 -41.148  1.00  0.00     0.168 HD
BRANCH  27  29
ATOM     29  C   UNL     1      -0.484 -18.011 -41.923  1.00  0.00     0.041 A 
ATOM     30  C   UNL     1      -0.766 -17.046 -42.906  1.00  0.00     0.029 A 
ATOM     31  C   UNL     1      -1.475 -18.956 -41.621  1.00  0.00     0.049 A 
ATOM     32  C   UNL     1      -1.973 -17.060 -43.608  1.00  0.00     0.043 A 
ATOM     33  C   UNL     1      -2.684 -18.972 -42.321  1.00  0.00     0.078 A 
ATOM     34  C   UNL     1      -2.925 -18.028 -43.314  1.00  0.00     0.141 A 
ATOM     35  Cl  UNL     1      -3.871 -20.159 -41.937  1.00  0.00    -0.081 Cl
ATOM     36  F   UNL     1      -4.079 -18.024 -43.997  1.00  0.00    -0.205 F 
ENDBRANCH  27  29
ENDBRANCH  16  27
ENDBRANCH   3  11
TORSDOF 8
ENDMDL
MODEL 19
REMARK VINA RESULT:    -7.383      5.130      9.872
REMARK INTER + INTRA:         -12.180
REMARK INTER:                 -10.603
REMARK INTRA:                  -1.577
REMARK UNBOUND:                -1.344
REMARK SMILES CN(C)C/C=C/C(=O)Nc1cc2c(Nc3ccc(F)c(Cl)c3)ncnc2cc1O[C@H]1CCOC1
REMARK SMILES IDX 7 1 8 2 9 3 6 5 5 6 4 7 2 8 1 9 3 10 10 11 11 12 28 13 12 14
REMARK SMILES IDX 27 15 13 16 26 17 23 18 25 19 24 20 29 21 30 22 31 23 34 24
REMARK SMILES IDX 32 25 33 26 14 27 15 29 16 30 22 31 17 32 20 33 18 34 21 35
REMARK SMILES IDX 19 36
REMARK H PARENT 9 4 14 28
ROOT
ATOM      1  C   UNL     1       1.878  -9.609 -44.370  1.00  0.00     0.248 C 
ATOM      2  O   UNL     1       1.539 -10.132 -43.315  1.00  0.00    -0.270 OA
ATOM      3  N   UNL     1       1.701 -10.106 -45.637  1.00  0.00    -0.319 N 
ATOM      4  H   UNL     1       1.898  -9.494 -46.422  1.00  0.00     0.170 HD
ENDROOT
BRANCH   1   5
ATOM      5  C   UNL     1       2.476  -8.246 -44.334  1.00  0.00     0.068 C 
ATOM      6  C   UNL     1       3.745  -8.000 -43.967  1.00  0.00    -0.006 C 
BRANCH   6   7
ATOM      7  C   UNL     1       4.470  -6.684 -43.850  1.00  0.00     0.111 C 
BRANCH   7   8
ATOM      8  N   UNL     1       5.892  -6.563 -44.133  1.00  0.00    -0.306 NA
ATOM      9  C   UNL     1       6.215  -5.804 -45.331  1.00  0.00     0.105 C 
ATOM     10  C   UNL     1       6.658  -7.793 -44.005  1.00  0.00     0.105 C 
ENDBRANCH   7   8
ENDBRANCH   6   7
ENDBRANCH   1   5
BRANCH   3  11
ATOM     11  C   UNL     1       1.200 -11.370 -46.014  1.00  0.00     0.085 A 
ATOM     12  C   UNL     1       1.976 -12.527 -46.045  1.00  0.00     0.044 A 
ATOM     13  C   UNL     1      -0.151 -11.439 -46.390  1.00  0.00     0.145 A 
ATOM     14  C   UNL     1       1.416 -13.772 -46.431  1.00  0.00     0.045 A 
ATOM     15  C   UNL     1      -0.689 -12.662 -46.796  1.00  0.00     0.077 A 
ATOM     16  C   UNL     1       2.112 -14.999 -46.468  1.00  0.00     0.141 A 
ATOM     17  C   UNL     1       0.071 -13.826 -46.817  1.00  0.00     0.080 A 
ATOM     18  N   UNL     1       1.518 -16.136 -46.873  1.00  0.00    -0.219 NA
ATOM     19  N   UNL     1      -0.523 -14.954 -47.211  1.00  0.00    -0.236 NA
ATOM     20  C   UNL     1       0.233 -16.058 -47.226  1.00  0.00     0.224 A 
BRANCH  13  21
ATOM     21  O   UNL     1      -0.838 -10.251 -46.326  1.00  0.00    -0.486 OA
BRANCH  21  22
ATOM     22  C   UNL     1      -2.129 -10.231 -45.702  1.00  0.00     0.201 C 
ATOM     23  C   UNL     1      -1.909 -10.079 -44.212  1.00  0.00     0.076 C 
ATOM     24  C   UNL     1      -2.882  -8.947 -46.029  1.00  0.00     0.205 C 
ATOM     25  C   UNL     1      -1.673  -8.591 -44.071  1.00  0.00     0.164 C 
ATOM     26  O   UNL     1      -2.478  -7.951 -45.068  1.00  0.00    -0.377 OA
ENDBRANCH  21  22
ENDBRANCH  13  21
BRANCH  16  27
ATOM     27  N   UNL     1       3.477 -15.030 -46.072  1.00  0.00    -0.340 N 
ATOM     28  H   UNL     1       3.835 -14.081 -46.025  1.00  0.00     0.168 HD
BRANCH  27  29
ATOM     29  C   UNL     1       4.117 -15.883 -45.145  1.00  0.00     0.041 A 
ATOM     30  C   UNL     1       3.860 -15.704 -43.775  1.00  0.00     0.029 A 
ATOM     31  C   UNL     1       5.082 -16.827 -45.519  1.00  0.00     0.049 A 
ATOM     32  C   UNL     1       4.502 -16.486 -42.811  1.00  0.00     0.043 A 
ATOM     33  C   UNL     1       5.727 -17.610 -44.557  1.00  0.00     0.078 A 
ATOM     34  C   UNL     1       5.430 -17.439 -43.209  1.00  0.00     0.141 A 
ATOM     35  Cl  UNL     1       6.894 -18.774 -45.054  1.00  0.00    -0.081 Cl
ATOM     36  F   UNL     1       6.038 -18.178 -42.270  1.00  0.00    -0.205 F 
ENDBRANCH  27  29
ENDBRANCH  16  27
ENDBRANCH   3  11
TORSDOF 8
ENDMDL
MODEL 20
REMARK VINA RESULT:    -7.326      5.078      9.410
REMARK INTER + INTRA:         -12.097
REMARK INTER:                 -11.124
REMARK INTRA:                  -0.973
REMARK UNBOUND:                -1.344
REMARK SMILES CN(C)C/C=C/C(=O)Nc1cc2c(Nc3ccc(F)c(Cl)c3)ncnc2cc1O[C@H]1CCOC1
REMARK SMILES IDX 7 1 8 2 9 3 6 5 5 6 4 7 2 8 1 9 3 10 10 11 11 12 28 13 12 14
REMARK SMILES IDX 27 15 13 16 26 17 23 18 25 19 24 20 29 21 30 22 31 23 34 24
REMARK SMILES IDX 32 25 33 26 14 27 15 29 16 30 22 31 17 32 20 33 18 34 21 35
REMARK SMILES IDX 19 36
REMARK H PARENT 9 4 14 28
ROOT
ATOM      1  C   UNL     1       2.974 -15.608 -43.845  1.00  0.00     0.248 C 
ATOM      2  O   UNL     1       3.776 -15.529 -44.769  1.00  0.00    -0.270 OA
ATOM      3  N   UNL     1       3.145 -16.263 -42.652  1.00  0.00    -0.319 N 
ATOM      4  H   UNL     1       2.453 -16.117 -41.924  1.00  0.00     0.170 HD
ENDROOT
BRANCH   1   5
ATOM      5  C   UNL     1       1.691 -14.858 -43.944  1.00  0.00     0.068 C 
ATOM      6  C   UNL     1       1.618 -13.543 -44.214  1.00  0.00    -0.006 C 
BRANCH   6   7
ATOM      7  C   UNL     1       0.407 -12.652 -44.310  1.00  0.00     0.111 C 
BRANCH   7   8
ATOM      8  N   UNL     1      -0.347 -12.512 -45.546  1.00  0.00    -0.306 NA
ATOM      9  C   UNL     1       0.334 -12.995 -46.737  1.00  0.00     0.105 C 
ATOM     10  C   UNL     1      -0.997 -11.225 -45.735  1.00  0.00     0.105 C 
ENDBRANCH   7   8
ENDBRANCH   6   7
ENDBRANCH   1   5
BRANCH   3  11
ATOM     11  C   UNL     1       4.220 -17.087 -42.257  1.00  0.00     0.085 A 
ATOM     12  C   UNL     1       5.559 -16.754 -42.456  1.00  0.00     0.044 A 
ATOM     13  C   UNL     1       3.901 -18.311 -41.647  1.00  0.00     0.145 A 
ATOM     14  C   UNL     1       6.599 -17.622 -42.034  1.00  0.00     0.045 A 
ATOM     15  C   UNL     1       4.929 -19.174 -41.261  1.00  0.00     0.077 A 
ATOM     16  C   UNL     1       7.979 -17.361 -42.167  1.00  0.00     0.141 A 
ATOM     17  C   UNL     1       6.267 -18.846 -41.441  1.00  0.00     0.080 A 
ATOM     18  N   UNL     1       8.907 -18.249 -41.768  1.00  0.00    -0.219 NA
ATOM     19  N   UNL     1       7.186 -19.726 -41.035  1.00  0.00    -0.236 NA
ATOM     20  C   UNL     1       8.466 -19.386 -41.224  1.00  0.00     0.224 A 
BRANCH  13  21
ATOM     21  O   UNL     1       2.557 -18.554 -41.491  1.00  0.00    -0.486 OA
BRANCH  21  22
ATOM     22  C   UNL     1       2.146 -19.704 -40.739  1.00  0.00     0.201 C 
ATOM     23  C   UNL     1       0.819 -19.371 -40.093  1.00  0.00     0.076 C 
ATOM     24  C   UNL     1       1.754 -20.854 -41.660  1.00  0.00     0.205 C 
ATOM     25  C   UNL     1      -0.158 -19.599 -41.226  1.00  0.00     0.164 C 
ATOM     26  O   UNL     1       0.368 -20.673 -42.012  1.00  0.00    -0.377 OA
ENDBRANCH  21  22
ENDBRANCH  13  21
BRANCH  16  27
ATOM     27  N   UNL     1       8.395 -16.130 -42.743  1.00  0.00    -0.340 N 
ATOM     28  H   UNL     1       8.304 -16.183 -43.753  1.00  0.00     0.168 HD
BRANCH  27  29
ATOM     29  C   UNL     1       8.209 -14.814 -42.264  1.00  0.00     0.041 A 
ATOM     30  C   UNL     1       8.404 -13.740 -43.149  1.00  0.00     0.029 A 
ATOM     31  C   UNL     1       7.948 -14.523 -40.918  1.00  0.00     0.049 A 
ATOM     32  C   UNL     1       8.282 -12.416 -42.718  1.00  0.00     0.043 A 
ATOM     33  C   UNL     1       7.827 -13.200 -40.484  1.00  0.00     0.078 A 
ATOM     34  C   UNL     1       7.989 -12.154 -41.387  1.00  0.00     0.141 A 
ATOM     35  Cl  UNL     1       7.486 -12.879 -38.826  1.00  0.00    -0.081 Cl
ATOM     36  F   UNL     1       7.879 -10.878 -40.990  1.00  0.00    -0.205 F 
ENDBRANCH  27  29
ENDBRANCH  16  27
ENDBRANCH   3  11
TORSDOF 8
ENDMDL
