MODEL 1
REMARK VINA RESULT:    -8.149      0.000      0.000
REMARK INTER + INTRA:         -13.119
REMARK INTER:                 -11.722
REMARK INTRA:                  -1.397
REMARK UNBOUND:                -1.397
REMARK SMILES CN(C)CCOc1ccc(-c2nc(-c3ccncc3)c(-c3ccc4c(c3)CC/C4=N\O)[nH]2)cc1
REMARK SMILES IDX 7 1 8 2 9 3 10 4 33 5 34 6 6 7 5 8 4 9 2 10 1 11 3 12 11 13
REMARK SMILES IDX 12 14 32 15 13 16 20 17 14 19 15 20 19 21 16 22 18 23 17 24
REMARK SMILES IDX 21 25 22 26 26 27 23 28 25 29 24 30 27 31 29 32 28 33 30 34
REMARK SMILES IDX 31 35
REMARK H PARENT 32 18 31 36
ROOT
ATOM      1  C   UNL     1      -0.958  -8.215 -44.579  1.00  0.00     0.119 A 
ATOM      2  C   UNL     1      -1.592  -9.205 -43.834  1.00  0.00     0.047 A 
ATOM      3  C   UNL     1      -1.032 -10.487 -43.750  1.00  0.00     0.016 A 
ATOM      4  C   UNL     1       0.167 -10.806 -44.406  1.00  0.00     0.017 A 
ATOM      5  C   UNL     1       0.796  -9.801 -45.151  1.00  0.00     0.016 A 
ATOM      6  C   UNL     1       0.236  -8.521 -45.235  1.00  0.00     0.047 A 
ENDROOT
BRANCH   1   7
ATOM      7  O   UNL     1      -1.390  -6.930 -44.748  1.00  0.00    -0.492 OA
BRANCH   7   8
ATOM      8  C   UNL     1      -2.289  -6.410 -43.763  1.00  0.00     0.245 C 
BRANCH   8   9
ATOM      9  C   UNL     1      -3.461  -5.696 -44.466  1.00  0.00     0.125 C 
BRANCH   9  10
ATOM     10  N   UNL     1      -4.728  -6.461 -44.495  1.00  0.00    -0.306 NA
ATOM     11  C   UNL     1      -4.787  -7.381 -45.633  1.00  0.00     0.105 C 
ATOM     12  C   UNL     1      -4.886  -7.209 -43.245  1.00  0.00     0.105 C 
ENDBRANCH   9  10
ENDBRANCH   8   9
ENDBRANCH   7   8
ENDBRANCH   1   7
BRANCH   4  13
ATOM     13  C   UNL     1       0.706 -12.165 -44.285  1.00  0.00     0.138 A 
ATOM     14  N   UNL     1       1.871 -12.579 -44.748  1.00  0.00    -0.228 NA
ATOM     15  N   UNL     1       0.065 -13.212 -43.668  1.00  0.00    -0.337 N 
ATOM     16  C   UNL     1       1.983 -13.911 -44.414  1.00  0.00     0.097 A 
ATOM     17  C   UNL     1       0.848 -14.343 -43.746  1.00  0.00     0.074 A 
ATOM     18  H   UNL     1      -0.854 -13.175 -43.255  1.00  0.00     0.168 HD
BRANCH  16  19
ATOM     19  C   UNL     1       3.158 -14.688 -44.772  1.00  0.00     0.005 A 
ATOM     20  C   UNL     1       3.188 -15.521 -45.891  1.00  0.00     0.030 A 
ATOM     21  C   UNL     1       4.288 -14.625 -43.954  1.00  0.00     0.030 A 
ATOM     22  C   UNL     1       4.351 -16.228 -46.156  1.00  0.00     0.111 A 
ATOM     23  C   UNL     1       5.401 -15.372 -44.302  1.00  0.00     0.111 A 
ATOM     24  N   UNL     1       5.460 -16.168 -45.390  1.00  0.00    -0.265 NA
ENDBRANCH  16  19
BRANCH  17  25
ATOM     25  C   UNL     1       0.393 -15.634 -43.245  1.00  0.00     0.001 A 
ATOM     26  C   UNL     1      -0.857 -16.147 -43.647  1.00  0.00     0.011 A 
ATOM     27  C   UNL     1       1.198 -16.367 -42.353  1.00  0.00     0.014 A 
ATOM     28  C   UNL     1      -1.312 -17.380 -43.176  1.00  0.00     0.011 A 
ATOM     29  C   UNL     1       0.740 -17.591 -41.888  1.00  0.00    -0.038 A 
ATOM     30  C   UNL     1      -0.495 -18.074 -42.303  1.00  0.00     0.003 A 
ATOM     31  C   UNL     1       1.437 -18.527 -40.952  1.00  0.00     0.043 C 
ATOM     32  C   UNL     1      -0.718 -19.362 -41.670  1.00  0.00     0.087 C 
ATOM     33  C   UNL     1       0.466 -19.708 -40.797  1.00  0.00     0.065 C 
ATOM     34  N   UNL     1      -1.785 -20.071 -41.855  1.00  0.00    -0.093 NA
BRANCH  34  35
ATOM     35  O   UNL     1      -1.719 -21.258 -41.119  1.00  0.00    -0.411 OA
ATOM     36  H   UNL     1      -2.623 -21.330 -40.759  1.00  0.00     0.330 HD
ENDBRANCH  34  35
ENDBRANCH  17  25
ENDBRANCH   4  13
TORSDOF 8
ENDMDL
MODEL 2
REMARK VINA RESULT:    -8.145      0.549      1.783
REMARK INTER + INTRA:         -13.113
REMARK INTER:                 -11.834
REMARK INTRA:                  -1.279
REMARK UNBOUND:                -1.397
REMARK SMILES CN(C)CCOc1ccc(-c2nc(-c3ccncc3)c(-c3ccc4c(c3)CC/C4=N\O)[nH]2)cc1
REMARK SMILES IDX 7 1 8 2 9 3 10 4 33 5 34 6 6 7 5 8 4 9 2 10 1 11 3 12 11 13
REMARK SMILES IDX 12 14 32 15 13 16 20 17 14 19 15 20 19 21 16 22 18 23 17 24
REMARK SMILES IDX 21 25 22 26 26 27 23 28 25 29 24 30 27 31 29 32 28 33 30 34
REMARK SMILES IDX 31 35
REMARK H PARENT 32 18 31 36
ROOT
ATOM      1  C   UNL     1      -0.745  -8.087 -44.539  1.00  0.00     0.119 A 
ATOM      2  C   UNL     1       0.482  -8.463 -45.080  1.00  0.00     0.047 A 
ATOM      3  C   UNL     1       0.945  -9.776 -44.920  1.00  0.00     0.016 A 
ATOM      4  C   UNL     1       0.196 -10.736 -44.222  1.00  0.00     0.017 A 
ATOM      5  C   UNL     1      -1.037 -10.346 -43.685  1.00  0.00     0.016 A 
ATOM      6  C   UNL     1      -1.498  -9.034 -43.844  1.00  0.00     0.047 A 
ENDROOT
BRANCH   1   7
ATOM      7  O   UNL     1      -1.315  -6.848 -44.616  1.00  0.00    -0.492 OA
BRANCH   7   8
ATOM      8  C   UNL     1      -2.386  -6.565 -43.710  1.00  0.00     0.245 C 
BRANCH   8   9
ATOM      9  C   UNL     1      -3.527  -5.861 -44.469  1.00  0.00     0.125 C 
BRANCH   9  10
ATOM     10  N   UNL     1      -4.831  -6.562 -44.424  1.00  0.00    -0.306 NA
ATOM     11  C   UNL     1      -5.080  -7.333 -45.644  1.00  0.00     0.105 C 
ATOM     12  C   UNL     1      -4.879  -7.448 -43.258  1.00  0.00     0.105 C 
ENDBRANCH   9  10
ENDBRANCH   8   9
ENDBRANCH   7   8
ENDBRANCH   1   7
BRANCH   4  13
ATOM     13  C   UNL     1       0.731 -12.096 -44.085  1.00  0.00     0.138 A 
ATOM     14  N   UNL     1       1.928 -12.498 -44.470  1.00  0.00    -0.228 NA
ATOM     15  N   UNL     1       0.052 -13.155 -43.534  1.00  0.00    -0.337 N 
ATOM     16  C   UNL     1       2.022 -13.835 -44.151  1.00  0.00     0.097 A 
ATOM     17  C   UNL     1       0.843 -14.282 -43.575  1.00  0.00     0.074 A 
ATOM     18  H   UNL     1      -0.895 -13.128 -43.188  1.00  0.00     0.168 HD
BRANCH  16  19
ATOM     19  C   UNL     1       3.223 -14.602 -44.437  1.00  0.00     0.005 A 
ATOM     20  C   UNL     1       4.316 -14.626 -43.569  1.00  0.00     0.030 A 
ATOM     21  C   UNL     1       3.304 -15.316 -45.634  1.00  0.00     0.030 A 
ATOM     22  C   UNL     1       5.423 -15.382 -43.922  1.00  0.00     0.111 A 
ATOM     23  C   UNL     1       4.455 -16.040 -45.898  1.00  0.00     0.111 A 
ATOM     24  N   UNL     1       5.515 -16.094 -45.064  1.00  0.00    -0.265 NA
ENDBRANCH  16  19
BRANCH  17  25
ATOM     25  C   UNL     1       0.360 -15.583 -43.130  1.00  0.00     0.001 A 
ATOM     26  C   UNL     1       1.180 -16.406 -42.331  1.00  0.00     0.011 A 
ATOM     27  C   UNL     1      -0.923 -16.024 -43.504  1.00  0.00     0.014 A 
ATOM     28  C   UNL     1       0.737 -17.657 -41.897  1.00  0.00     0.011 A 
ATOM     29  C   UNL     1      -1.358 -17.268 -43.071  1.00  0.00    -0.038 A 
ATOM     30  C   UNL     1      -0.529 -18.057 -42.282  1.00  0.00     0.003 A 
ATOM     31  C   UNL     1      -2.678 -17.916 -43.343  1.00  0.00     0.043 C 
ATOM     32  C   UNL     1      -1.231 -19.291 -41.975  1.00  0.00     0.087 C 
ATOM     33  C   UNL     1      -2.597 -19.270 -42.620  1.00  0.00     0.065 C 
ATOM     34  N   UNL     1      -0.723 -20.238 -41.254  1.00  0.00    -0.093 NA
BRANCH  34  35
ATOM     35  O   UNL     1      -1.626 -21.299 -41.130  1.00  0.00    -0.411 OA
ATOM     36  H   UNL     1      -2.316 -21.062 -41.778  1.00  0.00     0.330 HD
ENDBRANCH  34  35
ENDBRANCH  17  25
ENDBRANCH   4  13
TORSDOF 8
ENDMDL
MODEL 3
REMARK VINA RESULT:    -7.984      1.294      2.055
REMARK INTER + INTRA:         -12.881
REMARK INTER:                 -11.680
REMARK INTRA:                  -1.201
REMARK UNBOUND:                -1.397
REMARK SMILES CN(C)CCOc1ccc(-c2nc(-c3ccncc3)c(-c3ccc4c(c3)CC/C4=N\O)[nH]2)cc1
REMARK SMILES IDX 7 1 8 2 9 3 10 4 33 5 34 6 6 7 5 8 4 9 2 10 1 11 3 12 11 13
REMARK SMILES IDX 12 14 32 15 13 16 20 17 14 19 15 20 19 21 16 22 18 23 17 24
REMARK SMILES IDX 21 25 22 26 26 27 23 28 25 29 24 30 27 31 29 32 28 33 30 34
REMARK SMILES IDX 31 35
REMARK H PARENT 32 18 31 36
ROOT
ATOM      1  C   UNL     1      -1.884  -8.296 -45.984  1.00  0.00     0.119 A 
ATOM      2  C   UNL     1      -0.665  -8.319 -45.312  1.00  0.00     0.047 A 
ATOM      3  C   UNL     1      -0.031  -9.542 -45.053  1.00  0.00     0.016 A 
ATOM      4  C   UNL     1      -0.598 -10.760 -45.457  1.00  0.00     0.017 A 
ATOM      5  C   UNL     1      -1.823 -10.724 -46.134  1.00  0.00     0.016 A 
ATOM      6  C   UNL     1      -2.456  -9.502 -46.392  1.00  0.00     0.047 A 
ENDROOT
BRANCH   1   7
ATOM      7  O   UNL     1      -2.610  -7.183 -46.300  1.00  0.00    -0.492 OA
BRANCH   7   8
ATOM      8  C   UNL     1      -3.898  -7.049 -45.688  1.00  0.00     0.245 C 
BRANCH   8   9
ATOM      9  C   UNL     1      -3.741  -7.070 -44.155  1.00  0.00     0.125 C 
BRANCH   9  10
ATOM     10  N   UNL     1      -4.729  -7.909 -43.440  1.00  0.00    -0.306 NA
ATOM     11  C   UNL     1      -5.916  -8.174 -44.257  1.00  0.00     0.105 C 
ATOM     12  C   UNL     1      -4.110  -9.176 -43.041  1.00  0.00     0.105 C 
ENDBRANCH   9  10
ENDBRANCH   8   9
ENDBRANCH   7   8
ENDBRANCH   1   7
BRANCH   4  13
ATOM     13  C   UNL     1       0.111 -12.010 -45.158  1.00  0.00     0.138 A 
ATOM     14  N   UNL     1       1.330 -12.322 -45.554  1.00  0.00    -0.228 NA
ATOM     15  N   UNL     1      -0.404 -13.046 -44.415  1.00  0.00    -0.337 N 
ATOM     16  C   UNL     1       1.606 -13.575 -45.051  1.00  0.00     0.097 A 
ATOM     17  C   UNL     1       0.521 -14.064 -44.341  1.00  0.00     0.074 A 
ATOM     18  H   UNL     1      -1.330 -13.078 -44.017  1.00  0.00     0.168 HD
BRANCH  16  19
ATOM     19  C   UNL     1       2.881 -14.228 -45.297  1.00  0.00     0.005 A 
ATOM     20  C   UNL     1       4.097 -13.658 -44.917  1.00  0.00     0.030 A 
ATOM     21  C   UNL     1       2.897 -15.454 -45.964  1.00  0.00     0.030 A 
ATOM     22  C   UNL     1       5.265 -14.350 -45.194  1.00  0.00     0.111 A 
ATOM     23  C   UNL     1       4.116 -16.067 -46.198  1.00  0.00     0.111 A 
ATOM     24  N   UNL     1       5.302 -15.545 -45.820  1.00  0.00    -0.265 NA
ENDBRANCH  16  19
BRANCH  17  25
ATOM     25  C   UNL     1       0.226 -15.329 -43.681  1.00  0.00     0.001 A 
ATOM     26  C   UNL     1       1.149 -15.881 -42.768  1.00  0.00     0.011 A 
ATOM     27  C   UNL     1      -0.975 -16.006 -43.959  1.00  0.00     0.014 A 
ATOM     28  C   UNL     1       0.887 -17.094 -42.127  1.00  0.00     0.011 A 
ATOM     29  C   UNL     1      -1.229 -17.211 -43.319  1.00  0.00    -0.038 A 
ATOM     30  C   UNL     1      -0.304 -17.731 -42.423  1.00  0.00     0.003 A 
ATOM     31  C   UNL     1      -2.439 -18.079 -43.462  1.00  0.00     0.043 C 
ATOM     32  C   UNL     1      -0.823 -18.985 -41.907  1.00  0.00     0.087 C 
ATOM     33  C   UNL     1      -2.171 -19.268 -42.527  1.00  0.00     0.065 C 
ATOM     34  N   UNL     1      -0.190 -19.717 -41.047  1.00  0.00    -0.093 NA
BRANCH  34  35
ATOM     35  O   UNL     1      -0.931 -20.862 -40.737  1.00  0.00    -0.411 OA
ATOM     36  H   UNL     1      -1.806 -20.490 -40.517  1.00  0.00     0.330 HD
ENDBRANCH  34  35
ENDBRANCH  17  25
ENDBRANCH   4  13
TORSDOF 8
ENDMDL
MODEL 4
REMARK VINA RESULT:    -7.812      6.320     11.143
REMARK INTER + INTRA:         -12.634
REMARK INTER:                 -11.370
REMARK INTRA:                  -1.264
REMARK UNBOUND:                -1.397
REMARK SMILES CN(C)CCOc1ccc(-c2nc(-c3ccncc3)c(-c3ccc4c(c3)CC/C4=N\O)[nH]2)cc1
REMARK SMILES IDX 7 1 8 2 9 3 10 4 33 5 34 6 6 7 5 8 4 9 2 10 1 11 3 12 11 13
REMARK SMILES IDX 12 14 32 15 13 16 20 17 14 19 15 20 19 21 16 22 18 23 17 24
REMARK SMILES IDX 21 25 22 26 26 27 23 28 25 29 24 30 27 31 29 32 28 33 30 34
REMARK SMILES IDX 31 35
REMARK H PARENT 32 18 31 36
ROOT
ATOM      1  C   UNL     1       4.171 -19.706 -41.183  1.00  0.00     0.119 A 
ATOM      2  C   UNL     1       4.862 -19.668 -42.392  1.00  0.00     0.047 A 
ATOM      3  C   UNL     1       5.705 -18.588 -42.684  1.00  0.00     0.016 A 
ATOM      4  C   UNL     1       5.875 -17.528 -41.781  1.00  0.00     0.017 A 
ATOM      5  C   UNL     1       5.177 -17.578 -40.568  1.00  0.00     0.016 A 
ATOM      6  C   UNL     1       4.335 -18.657 -40.277  1.00  0.00     0.047 A 
ENDROOT
BRANCH   1   7
ATOM      7  O   UNL     1       3.320 -20.691 -40.770  1.00  0.00    -0.492 OA
BRANCH   7   8
ATOM      8  C   UNL     1       1.995 -20.295 -40.401  1.00  0.00     0.245 C 
BRANCH   8   9
ATOM      9  C   UNL     1       1.016 -20.657 -41.535  1.00  0.00     0.125 C 
BRANCH   9  10
ATOM     10  N   UNL     1      -0.417 -20.571 -41.172  1.00  0.00    -0.306 NA
ATOM     11  C   UNL     1      -1.076 -19.431 -41.813  1.00  0.00     0.105 C 
ATOM     12  C   UNL     1      -1.100 -21.813 -41.545  1.00  0.00     0.105 C 
ENDBRANCH   9  10
ENDBRANCH   8   9
ENDBRANCH   7   8
ENDBRANCH   1   7
BRANCH   4  13
ATOM     13  C   UNL     1       6.770 -16.421 -42.141  1.00  0.00     0.138 A 
ATOM     14  N   UNL     1       8.085 -16.486 -42.222  1.00  0.00    -0.228 NA
ATOM     15  N   UNL     1       6.359 -15.146 -42.445  1.00  0.00    -0.337 N 
ATOM     16  C   UNL     1       8.526 -15.234 -42.593  1.00  0.00     0.097 A 
ATOM     17  C   UNL     1       7.456 -14.362 -42.724  1.00  0.00     0.074 A 
ATOM     18  H   UNL     1       5.405 -14.818 -42.429  1.00  0.00     0.168 HD
BRANCH  16  19
ATOM     19  C   UNL     1       9.939 -14.949 -42.779  1.00  0.00     0.005 A 
ATOM     20  C   UNL     1      10.769 -14.576 -41.721  1.00  0.00     0.030 A 
ATOM     21  C   UNL     1      10.482 -15.021 -44.063  1.00  0.00     0.030 A 
ATOM     22  C   UNL     1      12.104 -14.320 -41.990  1.00  0.00     0.111 A 
ATOM     23  C   UNL     1      11.829 -14.744 -44.230  1.00  0.00     0.111 A 
ATOM     24  N   UNL     1      12.655 -14.402 -43.219  1.00  0.00    -0.265 NA
ENDBRANCH  16  19
BRANCH  17  25
ATOM     25  C   UNL     1       7.337 -12.937 -43.006  1.00  0.00     0.001 A 
ATOM     26  C   UNL     1       7.551 -11.993 -41.980  1.00  0.00     0.011 A 
ATOM     27  C   UNL     1       7.000 -12.500 -44.300  1.00  0.00     0.014 A 
ATOM     28  C   UNL     1       7.439 -10.624 -42.228  1.00  0.00     0.011 A 
ATOM     29  C   UNL     1       6.889 -11.138 -44.541  1.00  0.00    -0.038 A 
ATOM     30  C   UNL     1       7.108 -10.231 -43.512  1.00  0.00     0.003 A 
ATOM     31  C   UNL     1       6.555 -10.468 -45.836  1.00  0.00     0.043 C 
ATOM     32  C   UNL     1       6.930  -8.890 -44.040  1.00  0.00     0.087 C 
ATOM     33  C   UNL     1       6.574  -8.967 -45.506  1.00  0.00     0.065 C 
ATOM     34  N   UNL     1       7.065  -7.820 -43.324  1.00  0.00    -0.093 NA
BRANCH  34  35
ATOM     35  O   UNL     1       6.833  -6.679 -44.100  1.00  0.00    -0.411 OA
ATOM     36  H   UNL     1       5.867  -6.566 -44.021  1.00  0.00     0.330 HD
ENDBRANCH  34  35
ENDBRANCH  17  25
ENDBRANCH   4  13
TORSDOF 8
ENDMDL
MODEL 5
REMARK VINA RESULT:    -7.650      2.649      5.325
REMARK INTER + INTRA:         -12.401
REMARK INTER:                 -11.156
REMARK INTRA:                  -1.245
REMARK UNBOUND:                -1.397
REMARK SMILES CN(C)CCOc1ccc(-c2nc(-c3ccncc3)c(-c3ccc4c(c3)CC/C4=N\O)[nH]2)cc1
REMARK SMILES IDX 7 1 8 2 9 3 10 4 33 5 34 6 6 7 5 8 4 9 2 10 1 11 3 12 11 13
REMARK SMILES IDX 12 14 32 15 13 16 20 17 14 19 15 20 19 21 16 22 18 23 17 24
REMARK SMILES IDX 21 25 22 26 26 27 23 28 25 29 24 30 27 31 29 32 28 33 30 34
REMARK SMILES IDX 31 35
REMARK H PARENT 32 18 31 36
ROOT
ATOM      1  C   UNL     1      -2.095  -8.621 -46.138  1.00  0.00     0.119 A 
ATOM      2  C   UNL     1      -2.490  -9.864 -46.625  1.00  0.00     0.047 A 
ATOM      3  C   UNL     1      -1.764 -11.014 -46.286  1.00  0.00     0.016 A 
ATOM      4  C   UNL     1      -0.634 -10.947 -45.457  1.00  0.00     0.017 A 
ATOM      5  C   UNL     1      -0.247  -9.692 -44.971  1.00  0.00     0.016 A 
ATOM      6  C   UNL     1      -0.973  -8.544 -45.311  1.00  0.00     0.047 A 
ENDROOT
BRANCH   1   7
ATOM      7  O   UNL     1      -2.704  -7.424 -46.388  1.00  0.00    -0.492 OA
BRANCH   7   8
ATOM      8  C   UNL     1      -3.528  -6.883 -45.350  1.00  0.00     0.245 C 
BRANCH   8   9
ATOM      9  C   UNL     1      -4.964  -7.420 -45.503  1.00  0.00     0.125 C 
BRANCH   9  10
ATOM     10  N   UNL     1      -5.578  -7.921 -44.253  1.00  0.00    -0.306 NA
ATOM     11  C   UNL     1      -4.926  -9.142 -43.774  1.00  0.00     0.105 C 
ATOM     12  C   UNL     1      -5.514  -6.886 -43.217  1.00  0.00     0.105 C 
ENDBRANCH   9  10
ENDBRANCH   8   9
ENDBRANCH   7   8
ENDBRANCH   1   7
BRANCH   4  13
ATOM     13  C   UNL     1       0.088 -12.184 -45.136  1.00  0.00     0.138 A 
ATOM     14  N   UNL     1      -0.374 -13.181 -44.406  1.00  0.00    -0.228 NA
ATOM     15  N   UNL     1       1.364 -12.479 -45.553  1.00  0.00    -0.337 N 
ATOM     16  C   UNL     1       0.618 -14.137 -44.361  1.00  0.00     0.097 A 
ATOM     17  C   UNL     1       1.736 -13.711 -45.063  1.00  0.00     0.074 A 
ATOM     18  H   UNL     1       1.957 -11.873 -46.099  1.00  0.00     0.168 HD
BRANCH  16  19
ATOM     19  C   UNL     1       0.441 -15.383 -43.635  1.00  0.00     0.005 A 
ATOM     20  C   UNL     1       1.401 -15.874 -42.749  1.00  0.00     0.030 A 
ATOM     21  C   UNL     1      -0.716 -16.135 -43.851  1.00  0.00     0.030 A 
ATOM     22  C   UNL     1       1.151 -17.073 -42.102  1.00  0.00     0.111 A 
ATOM     23  C   UNL     1      -0.874 -17.323 -43.157  1.00  0.00     0.111 A 
ATOM     24  N   UNL     1       0.032 -17.806 -42.281  1.00  0.00    -0.265 NA
ENDBRANCH  16  19
BRANCH  17  25
ATOM     25  C   UNL     1       3.069 -14.258 -45.276  1.00  0.00     0.001 A 
ATOM     26  C   UNL     1       3.230 -15.485 -45.954  1.00  0.00     0.011 A 
ATOM     27  C   UNL     1       4.199 -13.567 -44.800  1.00  0.00     0.014 A 
ATOM     28  C   UNL     1       4.499 -16.027 -46.166  1.00  0.00     0.011 A 
ATOM     29  C   UNL     1       5.457 -14.111 -45.013  1.00  0.00    -0.038 A 
ATOM     30  C   UNL     1       5.586 -15.320 -45.686  1.00  0.00     0.003 A 
ATOM     31  C   UNL     1       6.777 -13.539 -44.603  1.00  0.00     0.043 C 
ATOM     32  C   UNL     1       6.999 -15.648 -45.769  1.00  0.00     0.087 C 
ATOM     33  C   UNL     1       7.810 -14.564 -45.098  1.00  0.00     0.065 C 
ATOM     34  N   UNL     1       7.448 -16.720 -46.339  1.00  0.00    -0.093 NA
BRANCH  34  35
ATOM     35  O   UNL     1       8.844 -16.767 -46.264  1.00  0.00    -0.411 OA
ATOM     36  H   UNL     1       9.003 -16.716 -45.303  1.00  0.00     0.330 HD
ENDBRANCH  34  35
ENDBRANCH  17  25
ENDBRANCH   4  13
TORSDOF 8
ENDMDL
MODEL 6
REMARK VINA RESULT:    -7.585      1.840      2.269
REMARK INTER + INTRA:         -12.307
REMARK INTER:                 -11.252
REMARK INTRA:                  -1.055
REMARK UNBOUND:                -1.397
REMARK SMILES CN(C)CCOc1ccc(-c2nc(-c3ccncc3)c(-c3ccc4c(c3)CC/C4=N\O)[nH]2)cc1
REMARK SMILES IDX 7 1 8 2 9 3 10 4 33 5 34 6 6 7 5 8 4 9 2 10 1 11 3 12 11 13
REMARK SMILES IDX 12 14 32 15 13 16 20 17 14 19 15 20 19 21 16 22 18 23 17 24
REMARK SMILES IDX 21 25 22 26 26 27 23 28 25 29 24 30 27 31 29 32 28 33 30 34
REMARK SMILES IDX 31 35
REMARK H PARENT 32 18 31 36
ROOT
ATOM      1  C   UNL     1      -1.971  -9.405 -46.292  1.00  0.00     0.119 A 
ATOM      2  C   UNL     1      -0.936  -9.152 -45.396  1.00  0.00     0.047 A 
ATOM      3  C   UNL     1      -0.022 -10.165 -45.075  1.00  0.00     0.016 A 
ATOM      4  C   UNL     1      -0.123 -11.446 -45.640  1.00  0.00     0.017 A 
ATOM      5  C   UNL     1      -1.167 -11.688 -46.541  1.00  0.00     0.016 A 
ATOM      6  C   UNL     1      -2.080 -10.675 -46.860  1.00  0.00     0.047 A 
ENDROOT
BRANCH   1   7
ATOM      7  O   UNL     1      -2.929  -8.517 -46.691  1.00  0.00    -0.492 OA
BRANCH   7   8
ATOM      8  C   UNL     1      -3.963  -8.207 -45.751  1.00  0.00     0.245 C 
BRANCH   8   9
ATOM      9  C   UNL     1      -3.908  -6.706 -45.405  1.00  0.00     0.125 C 
BRANCH   9  10
ATOM     10  N   UNL     1      -3.700  -6.405 -43.970  1.00  0.00    -0.306 NA
ATOM     11  C   UNL     1      -4.251  -7.452 -43.106  1.00  0.00     0.105 C 
ATOM     12  C   UNL     1      -2.270  -6.240 -43.698  1.00  0.00     0.105 C 
ENDBRANCH   9  10
ENDBRANCH   8   9
ENDBRANCH   7   8
ENDBRANCH   1   7
BRANCH   4  13
ATOM     13  C   UNL     1       0.862 -12.468 -45.267  1.00  0.00     0.138 A 
ATOM     14  N   UNL     1       2.080 -12.585 -45.760  1.00  0.00    -0.228 NA
ATOM     15  N   UNL     1       0.649 -13.463 -44.342  1.00  0.00    -0.337 N 
ATOM     16  C   UNL     1       2.663 -13.666 -45.135  1.00  0.00     0.097 A 
ATOM     17  C   UNL     1       1.774 -14.251 -44.246  1.00  0.00     0.074 A 
ATOM     18  H   UNL     1      -0.210 -13.620 -43.838  1.00  0.00     0.168 HD
BRANCH  16  19
ATOM     19  C   UNL     1       4.022 -14.080 -45.442  1.00  0.00     0.005 A 
ATOM     20  C   UNL     1       4.301 -15.216 -46.203  1.00  0.00     0.030 A 
ATOM     21  C   UNL     1       5.089 -13.335 -44.935  1.00  0.00     0.030 A 
ATOM     22  C   UNL     1       5.627 -15.538 -46.445  1.00  0.00     0.111 A 
ATOM     23  C   UNL     1       6.380 -13.740 -45.230  1.00  0.00     0.111 A 
ATOM     24  N   UNL     1       6.673 -14.823 -45.981  1.00  0.00    -0.265 NA
ENDBRANCH  16  19
BRANCH  17  25
ATOM     25  C   UNL     1       1.818 -15.436 -43.399  1.00  0.00     0.001 A 
ATOM     26  C   UNL     1       0.619 -16.050 -42.981  1.00  0.00     0.011 A 
ATOM     27  C   UNL     1       3.056 -15.965 -42.990  1.00  0.00     0.014 A 
ATOM     28  C   UNL     1       0.639 -17.185 -42.167  1.00  0.00     0.011 A 
ATOM     29  C   UNL     1       3.069 -17.092 -42.180  1.00  0.00    -0.038 A 
ATOM     30  C   UNL     1       1.873 -17.678 -41.786  1.00  0.00     0.003 A 
ATOM     31  C   UNL     1       4.265 -17.815 -41.647  1.00  0.00     0.043 C 
ATOM     32  C   UNL     1       2.180 -18.829 -40.955  1.00  0.00     0.087 C 
ATOM     33  C   UNL     1       3.678 -18.972 -40.823  1.00  0.00     0.065 C 
ATOM     34  N   UNL     1       1.274 -19.589 -40.429  1.00  0.00    -0.093 NA
BRANCH  34  35
ATOM     35  O   UNL     1       1.866 -20.614 -39.683  1.00  0.00    -0.411 OA
ATOM     36  H   UNL     1       2.815 -20.397 -39.749  1.00  0.00     0.330 HD
ENDBRANCH  34  35
ENDBRANCH  17  25
ENDBRANCH   4  13
TORSDOF 8
ENDMDL
MODEL 7
REMARK VINA RESULT:    -7.541      1.577      2.341
REMARK INTER + INTRA:         -12.244
REMARK INTER:                 -11.023
REMARK INTRA:                  -1.221
REMARK UNBOUND:                -1.397
REMARK SMILES CN(C)CCOc1ccc(-c2nc(-c3ccncc3)c(-c3ccc4c(c3)CC/C4=N\O)[nH]2)cc1
REMARK SMILES IDX 7 1 8 2 9 3 10 4 33 5 34 6 6 7 5 8 4 9 2 10 1 11 3 12 11 13
REMARK SMILES IDX 12 14 32 15 13 16 20 17 14 19 15 20 19 21 16 22 18 23 17 24
REMARK SMILES IDX 21 25 22 26 26 27 23 28 25 29 24 30 27 31 29 32 28 33 30 34
REMARK SMILES IDX 31 35
REMARK H PARENT 32 18 31 36
ROOT
ATOM      1  C   UNL     1      -1.841  -8.754 -46.032  1.00  0.00     0.119 A 
ATOM      2  C   UNL     1      -0.755  -8.714 -45.162  1.00  0.00     0.047 A 
ATOM      3  C   UNL     1      -0.099  -9.899 -44.804  1.00  0.00     0.016 A 
ATOM      4  C   UNL     1      -0.512 -11.144 -45.305  1.00  0.00     0.017 A 
ATOM      5  C   UNL     1      -1.604 -11.171 -46.180  1.00  0.00     0.016 A 
ATOM      6  C   UNL     1      -2.259  -9.986 -46.537  1.00  0.00     0.047 A 
ENDROOT
BRANCH   1   7
ATOM      7  O   UNL     1      -2.571  -7.682 -46.462  1.00  0.00    -0.492 OA
BRANCH   7   8
ATOM      8  C   UNL     1      -2.631  -6.544 -45.596  1.00  0.00     0.245 C 
BRANCH   8   9
ATOM      9  C   UNL     1      -1.906  -5.357 -46.260  1.00  0.00     0.125 C 
BRANCH   9  10
ATOM     10  N   UNL     1      -0.980  -4.618 -45.373  1.00  0.00    -0.306 NA
ATOM     11  C   UNL     1      -1.102  -5.045 -43.977  1.00  0.00     0.105 C 
ATOM     12  C   UNL     1       0.400  -4.803 -45.829  1.00  0.00     0.105 C 
ENDBRANCH   9  10
ENDBRANCH   8   9
ENDBRANCH   7   8
ENDBRANCH   1   7
BRANCH   4  13
ATOM     13  C   UNL     1       0.212 -12.352 -44.894  1.00  0.00     0.138 A 
ATOM     14  N   UNL     1       1.495 -12.590 -45.093  1.00  0.00    -0.228 NA
ATOM     15  N   UNL     1      -0.352 -13.421 -44.240  1.00  0.00    -0.337 N 
ATOM     16  C   UNL     1       1.761 -13.829 -44.549  1.00  0.00     0.097 A 
ATOM     17  C   UNL     1       0.607 -14.385 -44.019  1.00  0.00     0.074 A 
ATOM     18  H   UNL     1      -1.326 -13.510 -43.993  1.00  0.00     0.168 HD
BRANCH  16  19
ATOM     19  C   UNL     1       3.094 -14.406 -44.590  1.00  0.00     0.005 A 
ATOM     20  C   UNL     1       3.488 -15.302 -45.584  1.00  0.00     0.030 A 
ATOM     21  C   UNL     1       4.005 -14.079 -43.585  1.00  0.00     0.030 A 
ATOM     22  C   UNL     1       4.778 -15.806 -45.544  1.00  0.00     0.111 A 
ATOM     23  C   UNL     1       5.272 -14.637 -43.630  1.00  0.00     0.111 A 
ATOM     24  N   UNL     1       5.682 -15.490 -44.593  1.00  0.00    -0.265 NA
ENDBRANCH  16  19
BRANCH  17  25
ATOM     25  C   UNL     1       0.286 -15.670 -43.411  1.00  0.00     0.001 A 
ATOM     26  C   UNL     1       1.179 -16.258 -42.491  1.00  0.00     0.011 A 
ATOM     27  C   UNL     1      -0.910 -16.329 -43.747  1.00  0.00     0.014 A 
ATOM     28  C   UNL     1       0.891 -17.491 -41.900  1.00  0.00     0.011 A 
ATOM     29  C   UNL     1      -1.190 -17.553 -43.156  1.00  0.00    -0.038 A 
ATOM     30  C   UNL     1      -0.294 -18.109 -42.252  1.00  0.00     0.003 A 
ATOM     31  C   UNL     1      -2.400 -18.408 -43.364  1.00  0.00     0.043 C 
ATOM     32  C   UNL     1      -0.835 -19.377 -41.793  1.00  0.00     0.087 C 
ATOM     33  C   UNL     1      -2.166 -19.630 -42.462  1.00  0.00     0.065 C 
ATOM     34  N   UNL     1      -0.232 -20.141 -40.941  1.00  0.00    -0.093 NA
BRANCH  34  35
ATOM     35  O   UNL     1      -0.988 -21.291 -40.691  1.00  0.00    -0.411 OA
ATOM     36  H   UNL     1      -1.571 -21.003 -39.964  1.00  0.00     0.330 HD
ENDBRANCH  34  35
ENDBRANCH  17  25
ENDBRANCH   4  13
TORSDOF 8
ENDMDL
MODEL 8
REMARK VINA RESULT:    -7.517      7.064     11.497
REMARK INTER + INTRA:         -12.209
REMARK INTER:                 -10.871
REMARK INTRA:                  -1.338
REMARK UNBOUND:                -1.397
REMARK SMILES CN(C)CCOc1ccc(-c2nc(-c3ccncc3)c(-c3ccc4c(c3)CC/C4=N\O)[nH]2)cc1
REMARK SMILES IDX 7 1 8 2 9 3 10 4 33 5 34 6 6 7 5 8 4 9 2 10 1 11 3 12 11 13
REMARK SMILES IDX 12 14 32 15 13 16 20 17 14 19 15 20 19 21 16 22 18 23 17 24
REMARK SMILES IDX 21 25 22 26 26 27 23 28 25 29 24 30 27 31 29 32 28 33 30 34
REMARK SMILES IDX 31 35
REMARK H PARENT 32 18 31 36
ROOT
ATOM      1  C   UNL     1       3.785 -19.814 -41.323  1.00  0.00     0.119 A 
ATOM      2  C   UNL     1       3.527 -18.507 -40.916  1.00  0.00     0.047 A 
ATOM      3  C   UNL     1       4.415 -17.478 -41.260  1.00  0.00     0.016 A 
ATOM      4  C   UNL     1       5.572 -17.731 -42.013  1.00  0.00     0.017 A 
ATOM      5  C   UNL     1       5.818 -19.049 -42.418  1.00  0.00     0.016 A 
ATOM      6  C   UNL     1       4.932 -20.076 -42.074  1.00  0.00     0.047 A 
ENDROOT
BRANCH   1   7
ATOM      7  O   UNL     1       3.011 -20.909 -41.059  1.00  0.00    -0.492 OA
BRANCH   7   8
ATOM      8  C   UNL     1       1.761 -20.680 -40.400  1.00  0.00     0.245 C 
BRANCH   8   9
ATOM      9  C   UNL     1       0.611 -20.852 -41.412  1.00  0.00     0.125 C 
BRANCH   9  10
ATOM     10  N   UNL     1      -0.471 -19.847 -41.299  1.00  0.00    -0.306 NA
ATOM     11  C   UNL     1      -0.119 -18.587 -41.958  1.00  0.00     0.105 C 
ATOM     12  C   UNL     1      -1.707 -20.380 -41.879  1.00  0.00     0.105 C 
ENDBRANCH   9  10
ENDBRANCH   8   9
ENDBRANCH   7   8
ENDBRANCH   1   7
BRANCH   4  13
ATOM     13  C   UNL     1       6.466 -16.615 -42.342  1.00  0.00     0.138 A 
ATOM     14  N   UNL     1       6.206 -15.335 -42.153  1.00  0.00    -0.228 NA
ATOM     15  N   UNL     1       7.713 -16.747 -42.904  1.00  0.00    -0.337 N 
ATOM     16  C   UNL     1       7.309 -14.634 -42.592  1.00  0.00     0.097 A 
ATOM     17  C   UNL     1       8.270 -15.501 -43.088  1.00  0.00     0.074 A 
ATOM     18  H   UNL     1       8.143 -17.617 -43.178  1.00  0.00     0.168 HD
BRANCH  16  19
ATOM     19  C   UNL     1       7.363 -13.183 -42.525  1.00  0.00     0.005 A 
ATOM     20  C   UNL     1       7.322 -12.383 -43.668  1.00  0.00     0.030 A 
ATOM     21  C   UNL     1       7.491 -12.565 -41.280  1.00  0.00     0.030 A 
ATOM     22  C   UNL     1       7.382 -11.007 -43.512  1.00  0.00     0.111 A 
ATOM     23  C   UNL     1       7.545 -11.182 -41.228  1.00  0.00     0.111 A 
ATOM     24  N   UNL     1       7.486 -10.388 -42.318  1.00  0.00    -0.265 NA
ENDBRANCH  16  19
BRANCH  17  25
ATOM     25  C   UNL     1       9.561 -15.320 -43.739  1.00  0.00     0.001 A 
ATOM     26  C   UNL     1      10.674 -14.884 -42.991  1.00  0.00     0.011 A 
ATOM     27  C   UNL     1       9.697 -15.571 -45.116  1.00  0.00     0.014 A 
ATOM     28  C   UNL     1      11.919 -14.702 -43.596  1.00  0.00     0.011 A 
ATOM     29  C   UNL     1      10.937 -15.388 -45.713  1.00  0.00    -0.038 A 
ATOM     30  C   UNL     1      12.017 -14.960 -44.951  1.00  0.00     0.003 A 
ATOM     31  C   UNL     1      11.298 -15.607 -47.148  1.00  0.00     0.043 C 
ATOM     32  C   UNL     1      13.176 -14.856 -45.820  1.00  0.00     0.087 C 
ATOM     33  C   UNL     1      12.790 -15.247 -47.227  1.00  0.00     0.065 C 
ATOM     34  N   UNL     1      14.344 -14.479 -45.407  1.00  0.00    -0.093 NA
BRANCH  34  35
ATOM     35  O   UNL     1      15.260 -14.474 -46.464  1.00  0.00    -0.411 OA
ATOM     36  H   UNL     1      16.116 -14.487 -45.998  1.00  0.00     0.330 HD
ENDBRANCH  34  35
ENDBRANCH  17  25
ENDBRANCH   4  13
TORSDOF 8
ENDMDL
MODEL 9
REMARK VINA RESULT:    -7.488      4.748      6.345
REMARK INTER + INTRA:         -12.168
REMARK INTER:                 -11.067
REMARK INTRA:                  -1.101
REMARK UNBOUND:                -1.397
REMARK SMILES CN(C)CCOc1ccc(-c2nc(-c3ccncc3)c(-c3ccc4c(c3)CC/C4=N\O)[nH]2)cc1
REMARK SMILES IDX 7 1 8 2 9 3 10 4 33 5 34 6 6 7 5 8 4 9 2 10 1 11 3 12 11 13
REMARK SMILES IDX 12 14 32 15 13 16 20 17 14 19 15 20 19 21 16 22 18 23 17 24
REMARK SMILES IDX 21 25 22 26 26 27 23 28 25 29 24 30 27 31 29 32 28 33 30 34
REMARK SMILES IDX 31 35
REMARK H PARENT 32 18 31 36
ROOT
ATOM      1  C   UNL     1      -1.996 -10.428 -44.827  1.00  0.00     0.119 A 
ATOM      2  C   UNL     1      -1.402 -11.014 -45.942  1.00  0.00     0.047 A 
ATOM      3  C   UNL     1      -0.009 -11.158 -45.999  1.00  0.00     0.016 A 
ATOM      4  C   UNL     1       0.815 -10.721 -44.950  1.00  0.00     0.017 A 
ATOM      5  C   UNL     1       0.205 -10.136 -43.834  1.00  0.00     0.016 A 
ATOM      6  C   UNL     1      -1.186  -9.992 -43.778  1.00  0.00     0.047 A 
ENDROOT
BRANCH   1   7
ATOM      7  O   UNL     1      -3.334 -10.224 -44.639  1.00  0.00    -0.492 OA
BRANCH   7   8
ATOM      8  C   UNL     1      -3.739  -9.672 -43.383  1.00  0.00     0.245 C 
BRANCH   8   9
ATOM      9  C   UNL     1      -5.086  -8.941 -43.555  1.00  0.00     0.125 C 
BRANCH   9  10
ATOM     10  N   UNL     1      -4.976  -7.521 -43.960  1.00  0.00    -0.306 NA
ATOM     11  C   UNL     1      -3.684  -6.943 -43.585  1.00  0.00     0.105 C 
ATOM     12  C   UNL     1      -5.172  -7.401 -45.407  1.00  0.00     0.105 C 
ENDBRANCH   9  10
ENDBRANCH   8   9
ENDBRANCH   7   8
ENDBRANCH   1   7
BRANCH   4  13
ATOM     13  C   UNL     1       2.268 -10.896 -45.066  1.00  0.00     0.138 A 
ATOM     14  N   UNL     1       3.157  -9.927 -45.174  1.00  0.00    -0.228 NA
ATOM     15  N   UNL     1       2.914 -12.109 -45.081  1.00  0.00    -0.337 N 
ATOM     16  C   UNL     1       4.395 -10.527 -45.250  1.00  0.00     0.097 A 
ATOM     17  C   UNL     1       4.270 -11.907 -45.212  1.00  0.00     0.074 A 
ATOM     18  H   UNL     1       2.466 -13.012 -45.042  1.00  0.00     0.168 HD
BRANCH  16  19
ATOM     19  C   UNL     1       5.613  -9.743 -45.374  1.00  0.00     0.005 A 
ATOM     20  C   UNL     1       6.348  -9.327 -44.263  1.00  0.00     0.030 A 
ATOM     21  C   UNL     1       6.049  -9.365 -46.645  1.00  0.00     0.030 A 
ATOM     22  C   UNL     1       7.496  -8.580 -44.474  1.00  0.00     0.111 A 
ATOM     23  C   UNL     1       7.209  -8.615 -46.753  1.00  0.00     0.111 A 
ATOM     24  N   UNL     1       7.947  -8.219 -45.694  1.00  0.00    -0.265 NA
ENDBRANCH  16  19
BRANCH  17  25
ATOM     25  C   UNL     1       5.208 -13.015 -45.336  1.00  0.00     0.001 A 
ATOM     26  C   UNL     1       4.777 -14.250 -45.864  1.00  0.00     0.011 A 
ATOM     27  C   UNL     1       6.543 -12.858 -44.922  1.00  0.00     0.014 A 
ATOM     28  C   UNL     1       5.659 -15.325 -45.988  1.00  0.00     0.011 A 
ATOM     29  C   UNL     1       7.416 -13.930 -45.048  1.00  0.00    -0.038 A 
ATOM     30  C   UNL     1       6.964 -15.134 -45.574  1.00  0.00     0.003 A 
ATOM     31  C   UNL     1       8.865 -13.971 -44.682  1.00  0.00     0.043 C 
ATOM     32  C   UNL     1       8.075 -16.070 -45.591  1.00  0.00     0.087 C 
ATOM     33  C   UNL     1       9.310 -15.399 -45.036  1.00  0.00     0.065 C 
ATOM     34  N   UNL     1       7.975 -17.285 -46.026  1.00  0.00    -0.093 NA
BRANCH  34  35
ATOM     35  O   UNL     1       9.203 -17.946 -45.920  1.00  0.00    -0.411 OA
ATOM     36  H   UNL     1       9.794 -17.373 -46.443  1.00  0.00     0.330 HD
ENDBRANCH  34  35
ENDBRANCH  17  25
ENDBRANCH   4  13
TORSDOF 8
ENDMDL
MODEL 10
REMARK VINA RESULT:    -7.456      6.898     10.721
REMARK INTER + INTRA:         -12.122
REMARK INTER:                 -10.815
REMARK INTRA:                  -1.307
REMARK UNBOUND:                -1.397
REMARK SMILES CN(C)CCOc1ccc(-c2nc(-c3ccncc3)c(-c3ccc4c(c3)CC/C4=N\O)[nH]2)cc1
REMARK SMILES IDX 7 1 8 2 9 3 10 4 33 5 34 6 6 7 5 8 4 9 2 10 1 11 3 12 11 13
REMARK SMILES IDX 12 14 32 15 13 16 20 17 14 19 15 20 19 21 16 22 18 23 17 24
REMARK SMILES IDX 21 25 22 26 26 27 23 28 25 29 24 30 27 31 29 32 28 33 30 34
REMARK SMILES IDX 31 35
REMARK H PARENT 32 18 31 36
ROOT
ATOM      1  C   UNL     1       0.992 -19.507 -41.029  1.00  0.00     0.119 A 
ATOM      2  C   UNL     1       1.699 -18.319 -40.861  1.00  0.00     0.047 A 
ATOM      3  C   UNL     1       3.074 -18.278 -41.129  1.00  0.00     0.016 A 
ATOM      4  C   UNL     1       3.769 -19.416 -41.567  1.00  0.00     0.017 A 
ATOM      5  C   UNL     1       3.046 -20.604 -41.734  1.00  0.00     0.016 A 
ATOM      6  C   UNL     1       1.673 -20.644 -41.465  1.00  0.00     0.047 A 
ENDROOT
BRANCH   1   7
ATOM      7  O   UNL     1      -0.343 -19.690 -40.804  1.00  0.00    -0.492 OA
BRANCH   7   8
ATOM      8  C   UNL     1      -1.141 -20.102 -41.919  1.00  0.00     0.245 C 
BRANCH   8   9
ATOM      9  C   UNL     1      -1.621 -18.858 -42.692  1.00  0.00     0.125 C 
BRANCH   9  10
ATOM     10  N   UNL     1      -2.894 -18.277 -42.207  1.00  0.00    -0.306 NA
ATOM     11  C   UNL     1      -3.502 -17.386 -43.198  1.00  0.00     0.105 C 
ATOM     12  C   UNL     1      -3.831 -19.350 -41.864  1.00  0.00     0.105 C 
ENDBRANCH   9  10
ENDBRANCH   8   9
ENDBRANCH   7   8
ENDBRANCH   1   7
BRANCH   4  13
ATOM     13  C   UNL     1       5.209 -19.315 -41.831  1.00  0.00     0.138 A 
ATOM     14  N   UNL     1       6.142 -20.110 -41.343  1.00  0.00    -0.228 NA
ATOM     15  N   UNL     1       5.796 -18.363 -42.630  1.00  0.00    -0.337 N 
ATOM     16  C   UNL     1       7.347 -19.668 -41.845  1.00  0.00     0.097 A 
ATOM     17  C   UNL     1       7.160 -18.554 -42.647  1.00  0.00     0.074 A 
ATOM     18  H   UNL     1       5.312 -17.615 -43.102  1.00  0.00     0.168 HD
BRANCH  16  19
ATOM     19  C   UNL     1       8.598 -20.327 -41.508  1.00  0.00     0.005 A 
ATOM     20  C   UNL     1       8.993 -21.525 -42.106  1.00  0.00     0.030 A 
ATOM     21  C   UNL     1       9.421 -19.763 -40.532  1.00  0.00     0.030 A 
ATOM     22  C   UNL     1      10.201 -22.086 -41.723  1.00  0.00     0.111 A 
ATOM     23  C   UNL     1      10.609 -20.401 -40.217  1.00  0.00     0.111 A 
ATOM     24  N   UNL     1      11.022 -21.548 -40.796  1.00  0.00    -0.265 NA
ENDBRANCH  16  19
BRANCH  17  25
ATOM     25  C   UNL     1       8.058 -17.647 -43.351  1.00  0.00     0.001 A 
ATOM     26  C   UNL     1       8.658 -18.046 -44.563  1.00  0.00     0.011 A 
ATOM     27  C   UNL     1       8.334 -16.375 -42.818  1.00  0.00     0.014 A 
ATOM     28  C   UNL     1       9.524 -17.193 -45.251  1.00  0.00     0.011 A 
ATOM     29  C   UNL     1       9.196 -15.532 -43.506  1.00  0.00    -0.038 A 
ATOM     30  C   UNL     1       9.771 -15.950 -44.699  1.00  0.00     0.003 A 
ATOM     31  C   UNL     1       9.611 -14.146 -43.123  1.00  0.00     0.043 C 
ATOM     32  C   UNL     1      10.617 -14.880 -45.198  1.00  0.00     0.087 C 
ATOM     33  C   UNL     1      10.565 -13.709 -44.245  1.00  0.00     0.065 C 
ATOM     34  N   UNL     1      11.296 -14.964 -46.297  1.00  0.00    -0.093 NA
BRANCH  34  35
ATOM     35  O   UNL     1      12.015 -13.785 -46.520  1.00  0.00    -0.411 OA
ATOM     36  H   UNL     1      11.881 -13.636 -47.475  1.00  0.00     0.330 HD
ENDBRANCH  34  35
ENDBRANCH  17  25
ENDBRANCH   4  13
TORSDOF 8
ENDMDL
MODEL 11
REMARK VINA RESULT:    -7.440      3.545      4.861
REMARK INTER + INTRA:         -12.098
REMARK INTER:                 -11.208
REMARK INTRA:                  -0.890
REMARK UNBOUND:                -1.397
REMARK SMILES CN(C)CCOc1ccc(-c2nc(-c3ccncc3)c(-c3ccc4c(c3)CC/C4=N\O)[nH]2)cc1
REMARK SMILES IDX 7 1 8 2 9 3 10 4 33 5 34 6 6 7 5 8 4 9 2 10 1 11 3 12 11 13
REMARK SMILES IDX 12 14 32 15 13 16 20 17 14 19 15 20 19 21 16 22 18 23 17 24
REMARK SMILES IDX 21 25 22 26 26 27 23 28 25 29 24 30 27 31 29 32 28 33 30 34
REMARK SMILES IDX 31 35
REMARK H PARENT 32 18 31 36
ROOT
ATOM      1  C   UNL     1       2.861 -11.225 -45.339  1.00  0.00     0.119 A 
ATOM      2  C   UNL     1       1.770 -11.618 -44.568  1.00  0.00     0.047 A 
ATOM      3  C   UNL     1       1.768 -12.875 -43.947  1.00  0.00     0.016 A 
ATOM      4  C   UNL     1       2.849 -13.759 -44.082  1.00  0.00     0.017 A 
ATOM      5  C   UNL     1       3.941 -13.351 -44.858  1.00  0.00     0.016 A 
ATOM      6  C   UNL     1       3.942 -12.096 -45.478  1.00  0.00     0.047 A 
ENDROOT
BRANCH   1   7
ATOM      7  O   UNL     1       2.996 -10.036 -45.999  1.00  0.00    -0.492 OA
BRANCH   7   8
ATOM      8  C   UNL     1       3.751  -9.010 -45.346  1.00  0.00     0.245 C 
BRANCH   8   9
ATOM      9  C   UNL     1       2.786  -8.000 -44.695  1.00  0.00     0.125 C 
BRANCH   9  10
ATOM     10  N   UNL     1       3.193  -6.582 -44.818  1.00  0.00    -0.306 NA
ATOM     11  C   UNL     1       3.066  -5.864 -43.547  1.00  0.00     0.105 C 
ATOM     12  C   UNL     1       4.575  -6.501 -45.297  1.00  0.00     0.105 C 
ENDBRANCH   9  10
ENDBRANCH   8   9
ENDBRANCH   7   8
ENDBRANCH   1   7
BRANCH   4  13
ATOM     13  C   UNL     1       2.791 -15.063 -43.410  1.00  0.00     0.138 A 
ATOM     14  N   UNL     1       3.823 -15.734 -42.934  1.00  0.00    -0.228 NA
ATOM     15  N   UNL     1       1.640 -15.778 -43.182  1.00  0.00    -0.337 N 
ATOM     16  C   UNL     1       3.326 -16.895 -42.383  1.00  0.00     0.097 A 
ATOM     17  C   UNL     1       1.950 -16.958 -42.541  1.00  0.00     0.074 A 
ATOM     18  H   UNL     1       0.714 -15.506 -43.472  1.00  0.00     0.168 HD
BRANCH  16  19
ATOM     19  C   UNL     1       4.199 -17.875 -41.759  1.00  0.00     0.005 A 
ATOM     20  C   UNL     1       4.758 -18.936 -42.473  1.00  0.00     0.030 A 
ATOM     21  C   UNL     1       4.467 -17.773 -40.393  1.00  0.00     0.030 A 
ATOM     22  C   UNL     1       5.577 -19.826 -41.798  1.00  0.00     0.111 A 
ATOM     23  C   UNL     1       5.298 -18.715 -39.808  1.00  0.00     0.111 A 
ATOM     24  N   UNL     1       5.865 -19.737 -40.482  1.00  0.00    -0.265 NA
ENDBRANCH  16  19
BRANCH  17  25
ATOM     25  C   UNL     1       0.938 -17.962 -42.237  1.00  0.00     0.001 A 
ATOM     26  C   UNL     1       1.306 -19.166 -41.603  1.00  0.00     0.011 A 
ATOM     27  C   UNL     1      -0.406 -17.734 -42.584  1.00  0.00     0.014 A 
ATOM     28  C   UNL     1       0.352 -20.142 -41.306  1.00  0.00     0.011 A 
ATOM     29  C   UNL     1      -1.349 -18.708 -42.287  1.00  0.00    -0.038 A 
ATOM     30  C   UNL     1      -0.959 -19.884 -41.659  1.00  0.00     0.003 A 
ATOM     31  C   UNL     1      -2.820 -18.662 -42.557  1.00  0.00     0.043 C 
ATOM     32  C   UNL     1      -2.137 -20.713 -41.469  1.00  0.00     0.087 C 
ATOM     33  C   UNL     1      -3.350 -20.001 -42.019  1.00  0.00     0.065 C 
ATOM     34  N   UNL     1      -2.103 -21.879 -40.909  1.00  0.00    -0.093 NA
BRANCH  34  35
ATOM     35  O   UNL     1      -3.384 -22.440 -40.866  1.00  0.00    -0.411 OA
ATOM     36  H   UNL     1      -3.316 -23.165 -41.514  1.00  0.00     0.330 HD
ENDBRANCH  34  35
ENDBRANCH  17  25
ENDBRANCH   4  13
TORSDOF 8
ENDMDL
MODEL 12
REMARK VINA RESULT:    -7.397      4.465      6.268
REMARK INTER + INTRA:         -12.038
REMARK INTER:                 -11.023
REMARK INTRA:                  -1.015
REMARK UNBOUND:                -1.397
REMARK SMILES CN(C)CCOc1ccc(-c2nc(-c3ccncc3)c(-c3ccc4c(c3)CC/C4=N\O)[nH]2)cc1
REMARK SMILES IDX 7 1 8 2 9 3 10 4 33 5 34 6 6 7 5 8 4 9 2 10 1 11 3 12 11 13
REMARK SMILES IDX 12 14 32 15 13 16 20 17 14 19 15 20 19 21 16 22 18 23 17 24
REMARK SMILES IDX 21 25 22 26 26 27 23 28 25 29 24 30 27 31 29 32 28 33 30 34
REMARK SMILES IDX 31 35
REMARK H PARENT 32 18 31 36
ROOT
ATOM      1  C   UNL     1       7.200 -10.693 -44.243  1.00  0.00     0.119 A 
ATOM      2  C   UNL     1       6.502 -11.566 -45.075  1.00  0.00     0.047 A 
ATOM      3  C   UNL     1       6.168 -12.849 -44.621  1.00  0.00     0.016 A 
ATOM      4  C   UNL     1       6.521 -13.285 -43.335  1.00  0.00     0.017 A 
ATOM      5  C   UNL     1       7.220 -12.398 -42.507  1.00  0.00     0.016 A 
ATOM      6  C   UNL     1       7.554 -11.117 -42.962  1.00  0.00     0.047 A 
ENDROOT
BRANCH   1   7
ATOM      7  O   UNL     1       7.591  -9.422 -44.555  1.00  0.00    -0.492 OA
BRANCH   7   8
ATOM      8  C   UNL     1       7.060  -8.362 -43.752  1.00  0.00     0.245 C 
BRANCH   8   9
ATOM      9  C   UNL     1       5.650  -7.996 -44.254  1.00  0.00     0.125 C 
BRANCH   9  10
ATOM     10  N   UNL     1       4.556  -8.274 -43.295  1.00  0.00    -0.306 NA
ATOM     11  C   UNL     1       4.594  -7.370 -42.144  1.00  0.00     0.105 C 
ATOM     12  C   UNL     1       3.261  -8.162 -43.971  1.00  0.00     0.105 C 
ENDBRANCH   9  10
ENDBRANCH   8   9
ENDBRANCH   7   8
ENDBRANCH   1   7
BRANCH   4  13
ATOM     13  C   UNL     1       6.145 -14.640 -42.913  1.00  0.00     0.138 A 
ATOM     14  N   UNL     1       6.976 -15.645 -42.712  1.00  0.00    -0.228 NA
ATOM     15  N   UNL     1       4.859 -15.059 -42.670  1.00  0.00    -0.337 N 
ATOM     16  C   UNL     1       6.212 -16.724 -42.323  1.00  0.00     0.097 A 
ATOM     17  C   UNL     1       4.867 -16.387 -42.306  1.00  0.00     0.074 A 
ATOM     18  H   UNL     1       4.029 -14.496 -42.779  1.00  0.00     0.168 HD
BRANCH  16  19
ATOM     19  C   UNL     1       6.814 -18.010 -42.014  1.00  0.00     0.005 A 
ATOM     20  C   UNL     1       6.903 -19.037 -42.955  1.00  0.00     0.030 A 
ATOM     21  C   UNL     1       7.294 -18.242 -40.724  1.00  0.00     0.030 A 
ATOM     22  C   UNL     1       7.491 -20.232 -42.573  1.00  0.00     0.111 A 
ATOM     23  C   UNL     1       7.863 -19.472 -40.438  1.00  0.00     0.111 A 
ATOM     24  N   UNL     1       7.979 -20.472 -41.338  1.00  0.00    -0.265 NA
ENDBRANCH  16  19
BRANCH  17  25
ATOM     25  C   UNL     1       3.637 -17.130 -42.061  1.00  0.00     0.001 A 
ATOM     26  C   UNL     1       2.389 -16.551 -42.373  1.00  0.00     0.011 A 
ATOM     27  C   UNL     1       3.692 -18.421 -41.507  1.00  0.00     0.014 A 
ATOM     28  C   UNL     1       1.199 -17.244 -42.143  1.00  0.00     0.011 A 
ATOM     29  C   UNL     1       2.506 -19.105 -41.280  1.00  0.00    -0.038 A 
ATOM     30  C   UNL     1       1.291 -18.511 -41.599  1.00  0.00     0.003 A 
ATOM     31  C   UNL     1       2.343 -20.480 -40.714  1.00  0.00     0.043 C 
ATOM     32  C   UNL     1       0.227 -19.442 -41.263  1.00  0.00     0.087 C 
ATOM     33  C   UNL     1       0.823 -20.708 -40.694  1.00  0.00     0.065 C 
ATOM     34  N   UNL     1      -1.028 -19.181 -41.441  1.00  0.00    -0.093 NA
BRANCH  34  35
ATOM     35  O   UNL     1      -1.817 -20.260 -41.027  1.00  0.00    -0.411 OA
ATOM     36  H   UNL     1      -2.721 -19.937 -41.203  1.00  0.00     0.330 HD
ENDBRANCH  34  35
ENDBRANCH  17  25
ENDBRANCH   4  13
TORSDOF 8
ENDMDL
MODEL 13
REMARK VINA RESULT:    -7.395      3.545      8.115
REMARK INTER + INTRA:         -12.034
REMARK INTER:                 -10.742
REMARK INTRA:                  -1.292
REMARK UNBOUND:                -1.397
REMARK SMILES CN(C)CCOc1ccc(-c2nc(-c3ccncc3)c(-c3ccc4c(c3)CC/C4=N\O)[nH]2)cc1
REMARK SMILES IDX 7 1 8 2 9 3 10 4 33 5 34 6 6 7 5 8 4 9 2 10 1 11 3 12 11 13
REMARK SMILES IDX 12 14 32 15 13 16 20 17 14 19 15 20 19 21 16 22 18 23 17 24
REMARK SMILES IDX 21 25 22 26 26 27 23 28 25 29 24 30 27 31 29 32 28 33 30 34
REMARK SMILES IDX 31 35
REMARK H PARENT 32 18 31 36
ROOT
ATOM      1  C   UNL     1       8.520 -13.028 -44.899  1.00  0.00     0.119 A 
ATOM      2  C   UNL     1       7.689 -11.972 -44.535  1.00  0.00     0.047 A 
ATOM      3  C   UNL     1       6.304 -12.169 -44.445  1.00  0.00     0.016 A 
ATOM      4  C   UNL     1       5.724 -13.418 -44.715  1.00  0.00     0.017 A 
ATOM      5  C   UNL     1       6.570 -14.473 -45.077  1.00  0.00     0.016 A 
ATOM      6  C   UNL     1       7.954 -14.275 -45.167  1.00  0.00     0.047 A 
ENDROOT
BRANCH   1   7
ATOM      7  O   UNL     1       9.879 -12.979 -45.027  1.00  0.00    -0.492 OA
BRANCH   7   8
ATOM      8  C   UNL     1      10.640 -13.937 -44.283  1.00  0.00     0.245 C 
BRANCH   8   9
ATOM      9  C   UNL     1      10.948 -13.371 -42.883  1.00  0.00     0.125 C 
BRANCH   9  10
ATOM     10  N   UNL     1      10.342 -14.123 -41.761  1.00  0.00    -0.306 NA
ATOM     11  C   UNL     1       9.233 -13.390 -41.145  1.00  0.00     0.105 C 
ATOM     12  C   UNL     1       9.872 -15.428 -42.233  1.00  0.00     0.105 C 
ENDBRANCH   9  10
ENDBRANCH   8   9
ENDBRANCH   7   8
ENDBRANCH   1   7
BRANCH   4  13
ATOM     13  C   UNL     1       4.268 -13.565 -44.606  1.00  0.00     0.138 A 
ATOM     14  N   UNL     1       3.372 -12.650 -44.924  1.00  0.00    -0.228 NA
ATOM     15  N   UNL     1       3.624 -14.690 -44.149  1.00  0.00    -0.337 N 
ATOM     16  C   UNL     1       2.133 -13.200 -44.676  1.00  0.00     0.097 A 
ATOM     17  C   UNL     1       2.263 -14.483 -44.168  1.00  0.00     0.074 A 
ATOM     18  H   UNL     1       4.075 -15.527 -43.812  1.00  0.00     0.168 HD
BRANCH  16  19
ATOM     19  C   UNL     1       0.909 -12.456 -44.922  1.00  0.00     0.005 A 
ATOM     20  C   UNL     1       0.270 -11.719 -43.922  1.00  0.00     0.030 A 
ATOM     21  C   UNL     1       0.331 -12.501 -46.192  1.00  0.00     0.030 A 
ATOM     22  C   UNL     1      -0.895 -11.043 -44.244  1.00  0.00     0.111 A 
ATOM     23  C   UNL     1      -0.838 -11.792 -46.414  1.00  0.00     0.111 A 
ATOM     24  N   UNL     1      -1.461 -11.057 -45.470  1.00  0.00    -0.265 NA
ENDBRANCH  16  19
BRANCH  17  25
ATOM     25  C   UNL     1       1.322 -15.475 -43.664  1.00  0.00     0.001 A 
ATOM     26  C   UNL     1      -0.021 -15.458 -44.095  1.00  0.00     0.011 A 
ATOM     27  C   UNL     1       1.750 -16.447 -42.741  1.00  0.00     0.014 A 
ATOM     28  C   UNL     1      -0.938 -16.399 -43.621  1.00  0.00     0.011 A 
ATOM     29  C   UNL     1       0.833 -17.379 -42.274  1.00  0.00    -0.038 A 
ATOM     30  C   UNL     1      -0.483 -17.340 -42.717  1.00  0.00     0.003 A 
ATOM     31  C   UNL     1       1.081 -18.493 -41.307  1.00  0.00     0.043 C 
ATOM     32  C   UNL     1      -1.213 -18.419 -42.075  1.00  0.00     0.087 C 
ATOM     33  C   UNL     1      -0.283 -19.187 -41.165  1.00  0.00     0.065 C 
ATOM     34  N   UNL     1      -2.470 -18.649 -42.281  1.00  0.00    -0.093 NA
BRANCH  34  35
ATOM     35  O   UNL     1      -2.897 -19.748 -41.529  1.00  0.00    -0.411 OA
ATOM     36  H   UNL     1      -2.410 -20.486 -41.942  1.00  0.00     0.330 HD
ENDBRANCH  34  35
ENDBRANCH  17  25
ENDBRANCH   4  13
TORSDOF 8
ENDMDL
MODEL 14
REMARK VINA RESULT:    -7.385      4.478      5.881
REMARK INTER + INTRA:         -12.020
REMARK INTER:                 -10.948
REMARK INTRA:                  -1.072
REMARK UNBOUND:                -1.397
REMARK SMILES CN(C)CCOc1ccc(-c2nc(-c3ccncc3)c(-c3ccc4c(c3)CC/C4=N\O)[nH]2)cc1
REMARK SMILES IDX 7 1 8 2 9 3 10 4 33 5 34 6 6 7 5 8 4 9 2 10 1 11 3 12 11 13
REMARK SMILES IDX 12 14 32 15 13 16 20 17 14 19 15 20 19 21 16 22 18 23 17 24
REMARK SMILES IDX 21 25 22 26 26 27 23 28 25 29 24 30 27 31 29 32 28 33 30 34
REMARK SMILES IDX 31 35
REMARK H PARENT 32 18 31 36
ROOT
ATOM      1  C   UNL     1      -2.247  -9.095 -45.055  1.00  0.00     0.119 A 
ATOM      2  C   UNL     1      -1.245  -8.176 -44.756  1.00  0.00     0.047 A 
ATOM      3  C   UNL     1       0.102  -8.559 -44.829  1.00  0.00     0.016 A 
ATOM      4  C   UNL     1       0.473  -9.860 -45.201  1.00  0.00     0.017 A 
ATOM      5  C   UNL     1      -0.544 -10.774 -45.501  1.00  0.00     0.016 A 
ATOM      6  C   UNL     1      -1.889 -10.391 -45.427  1.00  0.00     0.047 A 
ENDROOT
BRANCH   1   7
ATOM      7  O   UNL     1      -3.593  -8.860 -45.024  1.00  0.00    -0.492 OA
BRANCH   7   8
ATOM      8  C   UNL     1      -4.068  -7.696 -45.708  1.00  0.00     0.245 C 
BRANCH   8   9
ATOM      9  C   UNL     1      -5.459  -7.315 -45.164  1.00  0.00     0.125 C 
BRANCH   9  10
ATOM     10  N   UNL     1      -5.448  -6.324 -44.064  1.00  0.00    -0.306 NA
ATOM     11  C   UNL     1      -5.547  -6.964 -42.750  1.00  0.00     0.105 C 
ATOM     12  C   UNL     1      -4.225  -5.520 -44.132  1.00  0.00     0.105 C 
ENDBRANCH   9  10
ENDBRANCH   8   9
ENDBRANCH   7   8
ENDBRANCH   1   7
BRANCH   4  13
ATOM     13  C   UNL     1       1.898 -10.205 -45.259  1.00  0.00     0.138 A 
ATOM     14  N   UNL     1       2.899  -9.348 -45.328  1.00  0.00    -0.228 NA
ATOM     15  N   UNL     1       2.397 -11.485 -45.252  1.00  0.00    -0.337 N 
ATOM     16  C   UNL     1       4.060 -10.090 -45.358  1.00  0.00     0.097 A 
ATOM     17  C   UNL     1       3.772 -11.445 -45.329  1.00  0.00     0.074 A 
ATOM     18  H   UNL     1       1.845 -12.329 -45.235  1.00  0.00     0.168 HD
BRANCH  16  19
ATOM     19  C   UNL     1       5.365  -9.455 -45.431  1.00  0.00     0.005 A 
ATOM     20  C   UNL     1       6.044  -9.283 -46.638  1.00  0.00     0.030 A 
ATOM     21  C   UNL     1       5.980  -9.029 -44.252  1.00  0.00     0.030 A 
ATOM     22  C   UNL     1       7.286  -8.670 -46.615  1.00  0.00     0.111 A 
ATOM     23  C   UNL     1       7.225  -8.429 -44.332  1.00  0.00     0.111 A 
ATOM     24  N   UNL     1       7.890  -8.233 -45.490  1.00  0.00    -0.265 NA
ENDBRANCH  16  19
BRANCH  17  25
ATOM     25  C   UNL     1       4.577 -12.656 -45.419  1.00  0.00     0.001 A 
ATOM     26  C   UNL     1       5.933 -12.634 -45.032  1.00  0.00     0.011 A 
ATOM     27  C   UNL     1       4.006 -13.848 -45.900  1.00  0.00     0.014 A 
ATOM     28  C   UNL     1       6.722 -13.783 -45.114  1.00  0.00     0.011 A 
ATOM     29  C   UNL     1       4.795 -14.987 -45.980  1.00  0.00    -0.038 A 
ATOM     30  C   UNL     1       6.127 -14.936 -45.589  1.00  0.00     0.003 A 
ATOM     31  C   UNL     1       4.385 -16.347 -46.448  1.00  0.00     0.043 C 
ATOM     32  C   UNL     1       6.708 -16.255 -45.774  1.00  0.00     0.087 C 
ATOM     33  C   UNL     1       5.660 -17.197 -46.319  1.00  0.00     0.065 C 
ATOM     34  N   UNL     1       7.941 -16.534 -45.499  1.00  0.00    -0.093 NA
BRANCH  34  35
ATOM     35  O   UNL     1       8.214 -17.878 -45.778  1.00  0.00    -0.411 OA
ATOM     36  H   UNL     1       7.471 -18.124 -46.361  1.00  0.00     0.330 HD
ENDBRANCH  34  35
ENDBRANCH  17  25
ENDBRANCH   4  13
TORSDOF 8
ENDMDL
MODEL 15
REMARK VINA RESULT:    -7.321      4.376      7.174
REMARK INTER + INTRA:         -11.928
REMARK INTER:                 -10.623
REMARK INTRA:                  -1.305
REMARK UNBOUND:                -1.397
REMARK SMILES CN(C)CCOc1ccc(-c2nc(-c3ccncc3)c(-c3ccc4c(c3)CC/C4=N\O)[nH]2)cc1
REMARK SMILES IDX 7 1 8 2 9 3 10 4 33 5 34 6 6 7 5 8 4 9 2 10 1 11 3 12 11 13
REMARK SMILES IDX 12 14 32 15 13 16 20 17 14 19 15 20 19 21 16 22 18 23 17 24
REMARK SMILES IDX 21 25 22 26 26 27 23 28 25 29 24 30 27 31 29 32 28 33 30 34
REMARK SMILES IDX 31 35
REMARK H PARENT 32 18 31 36
ROOT
ATOM      1  C   UNL     1       0.015 -12.523 -46.022  1.00  0.00     0.119 A 
ATOM      2  C   UNL     1       0.894 -13.331 -46.738  1.00  0.00     0.047 A 
ATOM      3  C   UNL     1       1.886 -14.058 -46.065  1.00  0.00     0.016 A 
ATOM      4  C   UNL     1       2.019 -13.993 -44.669  1.00  0.00     0.017 A 
ATOM      5  C   UNL     1       1.127 -13.179 -43.960  1.00  0.00     0.016 A 
ATOM      6  C   UNL     1       0.137 -12.453 -44.634  1.00  0.00     0.047 A 
ENDROOT
BRANCH   1   7
ATOM      7  O   UNL     1      -0.992 -11.763 -46.546  1.00  0.00    -0.492 OA
BRANCH   7   8
ATOM      8  C   UNL     1      -1.169 -10.451 -46.002  1.00  0.00     0.245 C 
BRANCH   8   9
ATOM      9  C   UNL     1      -2.660 -10.225 -45.684  1.00  0.00     0.125 C 
BRANCH   9  10
ATOM     10  N   UNL     1      -3.024 -10.390 -44.259  1.00  0.00    -0.306 NA
ATOM     11  C   UNL     1      -2.060  -9.738 -43.369  1.00  0.00     0.105 C 
ATOM     12  C   UNL     1      -4.364  -9.846 -44.021  1.00  0.00     0.105 C 
ENDBRANCH   9  10
ENDBRANCH   8   9
ENDBRANCH   7   8
ENDBRANCH   1   7
BRANCH   4  13
ATOM     13  C   UNL     1       3.076 -14.775 -44.017  1.00  0.00     0.138 A 
ATOM     14  N   UNL     1       2.920 -15.943 -43.424  1.00  0.00    -0.228 NA
ATOM     15  N   UNL     1       4.393 -14.393 -43.929  1.00  0.00    -0.337 N 
ATOM     16  C   UNL     1       4.159 -16.323 -42.956  1.00  0.00     0.097 A 
ATOM     17  C   UNL     1       5.106 -15.353 -43.244  1.00  0.00     0.074 A 
ATOM     18  H   UNL     1       4.777 -13.527 -44.274  1.00  0.00     0.168 HD
BRANCH  16  19
ATOM     19  C   UNL     1       4.351 -17.577 -42.246  1.00  0.00     0.005 A 
ATOM     20  C   UNL     1       5.304 -18.518 -42.640  1.00  0.00     0.030 A 
ATOM     21  C   UNL     1       3.537 -17.868 -41.150  1.00  0.00     0.030 A 
ATOM     22  C   UNL     1       5.417 -19.688 -41.907  1.00  0.00     0.111 A 
ATOM     23  C   UNL     1       3.726 -19.067 -40.483  1.00  0.00     0.111 A 
ATOM     24  N   UNL     1       4.654 -19.982 -40.834  1.00  0.00    -0.265 NA
ENDBRANCH  16  19
BRANCH  17  25
ATOM     25  C   UNL     1       6.518 -15.187 -42.926  1.00  0.00     0.001 A 
ATOM     26  C   UNL     1       6.908 -14.782 -41.632  1.00  0.00     0.011 A 
ATOM     27  C   UNL     1       7.495 -15.421 -43.911  1.00  0.00     0.014 A 
ATOM     28  C   UNL     1       8.256 -14.614 -41.308  1.00  0.00     0.011 A 
ATOM     29  C   UNL     1       8.833 -15.252 -43.583  1.00  0.00    -0.038 A 
ATOM     30  C   UNL     1       9.188 -14.856 -42.300  1.00  0.00     0.003 A 
ATOM     31  C   UNL     1      10.020 -15.458 -44.469  1.00  0.00     0.043 C 
ATOM     32  C   UNL     1      10.636 -14.760 -42.236  1.00  0.00     0.087 C 
ATOM     33  C   UNL     1      11.227 -15.125 -43.578  1.00  0.00     0.065 C 
ATOM     34  N   UNL     1      11.280 -14.411 -41.169  1.00  0.00    -0.093 NA
BRANCH  34  35
ATOM     35  O   UNL     1      12.658 -14.408 -41.406  1.00  0.00    -0.411 OA
ATOM     36  H   UNL     1      12.750 -15.075 -42.112  1.00  0.00     0.330 HD
ENDBRANCH  34  35
ENDBRANCH  17  25
ENDBRANCH   4  13
TORSDOF 8
ENDMDL
MODEL 16
REMARK VINA RESULT:    -7.266      5.276      6.772
REMARK INTER + INTRA:         -11.848
REMARK INTER:                 -10.419
REMARK INTRA:                  -1.429
REMARK UNBOUND:                -1.397
REMARK SMILES CN(C)CCOc1ccc(-c2nc(-c3ccncc3)c(-c3ccc4c(c3)CC/C4=N\O)[nH]2)cc1
REMARK SMILES IDX 7 1 8 2 9 3 10 4 33 5 34 6 6 7 5 8 4 9 2 10 1 11 3 12 11 13
REMARK SMILES IDX 12 14 32 15 13 16 20 17 14 19 15 20 19 21 16 22 18 23 17 24
REMARK SMILES IDX 21 25 22 26 26 27 23 28 25 29 24 30 27 31 29 32 28 33 30 34
REMARK SMILES IDX 31 35
REMARK H PARENT 32 18 31 36
ROOT
ATOM      1  C   UNL     1       7.000  -7.609 -44.436  1.00  0.00     0.119 A 
ATOM      2  C   UNL     1       7.347  -8.440 -45.499  1.00  0.00     0.047 A 
ATOM      3  C   UNL     1       7.511  -9.816 -45.288  1.00  0.00     0.016 A 
ATOM      4  C   UNL     1       7.334 -10.388 -44.019  1.00  0.00     0.017 A 
ATOM      5  C   UNL     1       6.984  -9.542 -42.959  1.00  0.00     0.016 A 
ATOM      6  C   UNL     1       6.820  -8.168 -43.170  1.00  0.00     0.047 A 
ENDROOT
BRANCH   1   7
ATOM      7  O   UNL     1       6.810  -6.258 -44.497  1.00  0.00    -0.492 OA
BRANCH   7   8
ATOM      8  C   UNL     1       6.228  -5.734 -45.695  1.00  0.00     0.245 C 
BRANCH   8   9
ATOM      9  C   UNL     1       4.699  -5.921 -45.646  1.00  0.00     0.125 C 
BRANCH   9  10
ATOM     10  N   UNL     1       4.047  -5.393 -44.425  1.00  0.00    -0.306 NA
ATOM     11  C   UNL     1       3.079  -4.338 -44.735  1.00  0.00     0.105 C 
ATOM     12  C   UNL     1       3.379  -6.482 -43.707  1.00  0.00     0.105 C 
ENDBRANCH   9  10
ENDBRANCH   8   9
ENDBRANCH   7   8
ENDBRANCH   1   7
BRANCH   4  13
ATOM     13  C   UNL     1       7.521 -11.834 -43.857  1.00  0.00     0.138 A 
ATOM     14  N   UNL     1       8.524 -12.543 -44.340  1.00  0.00    -0.228 NA
ATOM     15  N   UNL     1       6.665 -12.665 -43.174  1.00  0.00    -0.337 N 
ATOM     16  C   UNL     1       8.314 -13.849 -43.952  1.00  0.00     0.097 A 
ATOM     17  C   UNL     1       7.136 -13.958 -43.230  1.00  0.00     0.074 A 
ATOM     18  H   UNL     1       5.803 -12.384 -42.733  1.00  0.00     0.168 HD
BRANCH  16  19
ATOM     19  C   UNL     1       9.241 -14.907 -44.315  1.00  0.00     0.005 A 
ATOM     20  C   UNL     1       9.233 -15.505 -45.577  1.00  0.00     0.030 A 
ATOM     21  C   UNL     1      10.153 -15.367 -43.363  1.00  0.00     0.030 A 
ATOM     22  C   UNL     1      10.151 -16.510 -45.836  1.00  0.00     0.111 A 
ATOM     23  C   UNL     1      11.030 -16.379 -43.718  1.00  0.00     0.111 A 
ATOM     24  N   UNL     1      11.054 -16.957 -44.937  1.00  0.00    -0.265 NA
ENDBRANCH  16  19
BRANCH  17  25
ATOM     25  C   UNL     1       6.396 -15.076 -42.659  1.00  0.00     0.001 A 
ATOM     26  C   UNL     1       5.208 -15.524 -43.274  1.00  0.00     0.011 A 
ATOM     27  C   UNL     1       6.859 -15.705 -41.489  1.00  0.00     0.014 A 
ATOM     28  C   UNL     1       4.482 -16.591 -42.742  1.00  0.00     0.011 A 
ATOM     29  C   UNL     1       6.133 -16.764 -40.964  1.00  0.00    -0.038 A 
ATOM     30  C   UNL     1       4.968 -17.186 -41.592  1.00  0.00     0.003 A 
ATOM     31  C   UNL     1       6.453 -17.572 -39.746  1.00  0.00     0.043 C 
ATOM     32  C   UNL     1       4.420 -18.301 -40.838  1.00  0.00     0.087 C 
ATOM     33  C   UNL     1       5.309 -18.594 -39.653  1.00  0.00     0.065 C 
ATOM     34  N   UNL     1       3.331 -18.917 -41.169  1.00  0.00    -0.093 NA
BRANCH  34  35
ATOM     35  O   UNL     1       3.052 -19.942 -40.260  1.00  0.00    -0.411 OA
ATOM     36  H   UNL     1       3.785 -20.566 -40.418  1.00  0.00     0.330 HD
ENDBRANCH  34  35
ENDBRANCH  17  25
ENDBRANCH   4  13
TORSDOF 8
ENDMDL
MODEL 17
REMARK VINA RESULT:    -7.203      5.088      6.645
REMARK INTER + INTRA:         -11.757
REMARK INTER:                 -10.350
REMARK INTRA:                  -1.407
REMARK UNBOUND:                -1.397
REMARK SMILES CN(C)CCOc1ccc(-c2nc(-c3ccncc3)c(-c3ccc4c(c3)CC/C4=N\O)[nH]2)cc1
REMARK SMILES IDX 7 1 8 2 9 3 10 4 33 5 34 6 6 7 5 8 4 9 2 10 1 11 3 12 11 13
REMARK SMILES IDX 12 14 32 15 13 16 20 17 14 19 15 20 19 21 16 22 18 23 17 24
REMARK SMILES IDX 21 25 22 26 26 27 23 28 25 29 24 30 27 31 29 32 28 33 30 34
REMARK SMILES IDX 31 35
REMARK H PARENT 32 18 31 36
ROOT
ATOM      1  C   UNL     1       6.269  -7.616 -44.168  1.00  0.00     0.119 A 
ATOM      2  C   UNL     1       6.737  -8.200 -42.994  1.00  0.00     0.047 A 
ATOM      3  C   UNL     1       7.124  -9.547 -42.986  1.00  0.00     0.016 A 
ATOM      4  C   UNL     1       7.052 -10.335 -44.145  1.00  0.00     0.017 A 
ATOM      5  C   UNL     1       6.582  -9.736 -45.320  1.00  0.00     0.016 A 
ATOM      6  C   UNL     1       6.195  -8.391 -45.327  1.00  0.00     0.047 A 
ENDROOT
BRANCH   1   7
ATOM      7  O   UNL     1       5.859  -6.322 -44.318  1.00  0.00    -0.492 OA
BRANCH   7   8
ATOM      8  C   UNL     1       4.519  -6.112 -44.777  1.00  0.00     0.245 C 
BRANCH   8   9
ATOM      9  C   UNL     1       3.533  -6.396 -43.627  1.00  0.00     0.125 C 
BRANCH   9  10
ATOM     10  N   UNL     1       2.299  -7.109 -44.027  1.00  0.00    -0.306 NA
ATOM     11  C   UNL     1       1.618  -6.442 -45.139  1.00  0.00     0.105 C 
ATOM     12  C   UNL     1       2.620  -8.489 -44.399  1.00  0.00     0.105 C 
ENDBRANCH   9  10
ENDBRANCH   8   9
ENDBRANCH   7   8
ENDBRANCH   1   7
BRANCH   4  13
ATOM     13  C   UNL     1       7.469 -11.740 -44.078  1.00  0.00     0.138 A 
ATOM     14  N   UNL     1       8.582 -12.241 -44.581  1.00  0.00    -0.228 NA
ATOM     15  N   UNL     1       6.750 -12.745 -43.477  1.00  0.00    -0.337 N 
ATOM     16  C   UNL     1       8.581 -13.589 -44.291  1.00  0.00     0.097 A 
ATOM     17  C   UNL     1       7.426 -13.939 -43.609  1.00  0.00     0.074 A 
ATOM     18  H   UNL     1       5.847 -12.639 -43.041  1.00  0.00     0.168 HD
BRANCH  16  19
ATOM     19  C   UNL     1       9.674 -14.455 -44.701  1.00  0.00     0.005 A 
ATOM     20  C   UNL     1       9.653 -15.162 -45.904  1.00  0.00     0.030 A 
ATOM     21  C   UNL     1      10.770 -14.612 -43.851  1.00  0.00     0.030 A 
ATOM     22  C   UNL     1      10.737 -15.968 -46.214  1.00  0.00     0.111 A 
ATOM     23  C   UNL     1      11.804 -15.443 -44.249  1.00  0.00     0.111 A 
ATOM     24  N   UNL     1      11.816 -16.120 -45.417  1.00  0.00    -0.265 NA
ENDBRANCH  16  19
BRANCH  17  25
ATOM     25  C   UNL     1       6.869 -15.199 -43.136  1.00  0.00     0.001 A 
ATOM     26  C   UNL     1       6.461 -16.182 -44.062  1.00  0.00     0.011 A 
ATOM     27  C   UNL     1       6.728 -15.435 -41.757  1.00  0.00     0.014 A 
ATOM     28  C   UNL     1       5.922 -17.396 -43.630  1.00  0.00     0.011 A 
ATOM     29  C   UNL     1       6.191 -16.642 -41.333  1.00  0.00    -0.038 A 
ATOM     30  C   UNL     1       5.800 -17.593 -42.267  1.00  0.00     0.003 A 
ATOM     31  C   UNL     1       5.968 -17.095 -39.925  1.00  0.00     0.043 C 
ATOM     32  C   UNL     1       5.281 -18.747 -41.554  1.00  0.00     0.087 C 
ATOM     33  C   UNL     1       5.354 -18.497 -40.066  1.00  0.00     0.065 C 
ATOM     34  N   UNL     1       4.833 -19.808 -42.146  1.00  0.00    -0.093 NA
BRANCH  34  35
ATOM     35  O   UNL     1       4.401 -20.749 -41.206  1.00  0.00    -0.411 OA
ATOM     36  H   UNL     1       5.208 -20.903 -40.679  1.00  0.00     0.330 HD
ENDBRANCH  34  35
ENDBRANCH  17  25
ENDBRANCH   4  13
TORSDOF 8
ENDMDL
MODEL 18
REMARK VINA RESULT:    -7.177      3.632      5.161
REMARK INTER + INTRA:         -11.720
REMARK INTER:                 -10.472
REMARK INTRA:                  -1.248
REMARK UNBOUND:                -1.397
REMARK SMILES CN(C)CCOc1ccc(-c2nc(-c3ccncc3)c(-c3ccc4c(c3)CC/C4=N\O)[nH]2)cc1
REMARK SMILES IDX 7 1 8 2 9 3 10 4 33 5 34 6 6 7 5 8 4 9 2 10 1 11 3 12 11 13
REMARK SMILES IDX 12 14 32 15 13 16 20 17 14 19 15 20 19 21 16 22 18 23 17 24
REMARK SMILES IDX 21 25 22 26 26 27 23 28 25 29 24 30 27 31 29 32 28 33 30 34
REMARK SMILES IDX 31 35
REMARK H PARENT 32 18 31 36
ROOT
ATOM      1  C   UNL     1      -0.487 -11.884 -45.939  1.00  0.00     0.119 A 
ATOM      2  C   UNL     1       0.360 -12.590 -46.789  1.00  0.00     0.047 A 
ATOM      3  C   UNL     1       1.534 -13.168 -46.287  1.00  0.00     0.016 A 
ATOM      4  C   UNL     1       1.884 -13.055 -44.933  1.00  0.00     0.017 A 
ATOM      5  C   UNL     1       1.023 -12.344 -44.088  1.00  0.00     0.016 A 
ATOM      6  C   UNL     1      -0.149 -11.766 -44.590  1.00  0.00     0.047 A 
ENDROOT
BRANCH   1   7
ATOM      7  O   UNL     1      -1.656 -11.270 -46.291  1.00  0.00    -0.492 OA
BRANCH   7   8
ATOM      8  C   UNL     1      -1.905  -9.975 -45.734  1.00  0.00     0.245 C 
BRANCH   8   9
ATOM      9  C   UNL     1      -2.974  -9.252 -46.578  1.00  0.00     0.125 C 
BRANCH   9  10
ATOM     10  N   UNL     1      -3.035  -7.786 -46.381  1.00  0.00    -0.306 NA
ATOM     11  C   UNL     1      -4.274  -7.374 -45.717  1.00  0.00     0.105 C 
ATOM     12  C   UNL     1      -1.880  -7.341 -45.597  1.00  0.00     0.105 C 
ENDBRANCH   9  10
ENDBRANCH   8   9
ENDBRANCH   7   8
ENDBRANCH   1   7
BRANCH   4  13
ATOM     13  C   UNL     1       3.126 -13.680 -44.464  1.00  0.00     0.138 A 
ATOM     14  N   UNL     1       4.239 -13.046 -44.147  1.00  0.00    -0.228 NA
ATOM     15  N   UNL     1       3.307 -15.031 -44.289  1.00  0.00    -0.337 N 
ATOM     16  C   UNL     1       5.147 -14.005 -43.753  1.00  0.00     0.097 A 
ATOM     17  C   UNL     1       4.591 -15.271 -43.850  1.00  0.00     0.074 A 
ATOM     18  H   UNL     1       2.623 -15.745 -44.487  1.00  0.00     0.168 HD
BRANCH  16  19
ATOM     19  C   UNL     1       6.492 -13.650 -43.330  1.00  0.00     0.005 A 
ATOM     20  C   UNL     1       7.506 -13.354 -44.242  1.00  0.00     0.030 A 
ATOM     21  C   UNL     1       6.791 -13.633 -41.967  1.00  0.00     0.030 A 
ATOM     22  C   UNL     1       8.760 -13.028 -43.750  1.00  0.00     0.111 A 
ATOM     23  C   UNL     1       8.076 -13.297 -41.574  1.00  0.00     0.111 A 
ATOM     24  N   UNL     1       9.067 -12.987 -42.436  1.00  0.00    -0.265 NA
ENDBRANCH  16  19
BRANCH  17  25
ATOM     25  C   UNL     1       5.100 -16.622 -43.651  1.00  0.00     0.001 A 
ATOM     26  C   UNL     1       4.681 -17.377 -42.536  1.00  0.00     0.011 A 
ATOM     27  C   UNL     1       6.017 -17.172 -44.565  1.00  0.00     0.014 A 
ATOM     28  C   UNL     1       5.159 -18.672 -42.325  1.00  0.00     0.011 A 
ATOM     29  C   UNL     1       6.489 -18.459 -44.350  1.00  0.00    -0.038 A 
ATOM     30  C   UNL     1       6.057 -19.181 -43.245  1.00  0.00     0.003 A 
ATOM     31  C   UNL     1       7.451 -19.228 -45.199  1.00  0.00     0.043 C 
ATOM     32  C   UNL     1       6.702 -20.482 -43.269  1.00  0.00     0.087 C 
ATOM     33  C   UNL     1       7.603 -20.577 -44.479  1.00  0.00     0.065 C 
ATOM     34  N   UNL     1       6.506 -21.391 -42.369  1.00  0.00    -0.093 NA
BRANCH  34  35
ATOM     35  O   UNL     1       7.259 -22.534 -42.653  1.00  0.00    -0.411 OA
ATOM     36  H   UNL     1       7.436 -22.894 -41.764  1.00  0.00     0.330 HD
ENDBRANCH  34  35
ENDBRANCH  17  25
ENDBRANCH   4  13
TORSDOF 8
ENDMDL
MODEL 19
REMARK VINA RESULT:    -7.149      3.667      8.660
REMARK INTER + INTRA:         -11.681
REMARK INTER:                 -10.603
REMARK INTRA:                  -1.077
REMARK UNBOUND:                -1.397
REMARK SMILES CN(C)CCOc1ccc(-c2nc(-c3ccncc3)c(-c3ccc4c(c3)CC/C4=N\O)[nH]2)cc1
REMARK SMILES IDX 7 1 8 2 9 3 10 4 33 5 34 6 6 7 5 8 4 9 2 10 1 11 3 12 11 13
REMARK SMILES IDX 12 14 32 15 13 16 20 17 14 19 15 20 19 21 16 22 18 23 17 24
REMARK SMILES IDX 21 25 22 26 26 27 23 28 25 29 24 30 27 31 29 32 28 33 30 34
REMARK SMILES IDX 31 35
REMARK H PARENT 32 18 31 36
ROOT
ATOM      1  C   UNL     1       8.634 -13.354 -43.424  1.00  0.00     0.119 A 
ATOM      2  C   UNL     1       7.994 -13.121 -44.639  1.00  0.00     0.047 A 
ATOM      3  C   UNL     1       6.609 -13.308 -44.748  1.00  0.00     0.016 A 
ATOM      4  C   UNL     1       5.839 -13.729 -43.653  1.00  0.00     0.017 A 
ATOM      5  C   UNL     1       6.494 -13.958 -42.437  1.00  0.00     0.016 A 
ATOM      6  C   UNL     1       7.878 -13.772 -42.329  1.00  0.00     0.047 A 
ENDROOT
BRANCH   1   7
ATOM      7  O   UNL     1       9.970 -13.215 -43.176  1.00  0.00    -0.492 OA
BRANCH   7   8
ATOM      8  C   UNL     1      10.873 -13.799 -44.122  1.00  0.00     0.245 C 
BRANCH   8   9
ATOM      9  C   UNL     1      10.896 -15.328 -43.929  1.00  0.00     0.125 C 
BRANCH   9  10
ATOM     10  N   UNL     1      11.073 -16.110 -45.175  1.00  0.00    -0.306 NA
ATOM     11  C   UNL     1      10.696 -15.339 -46.362  1.00  0.00     0.105 C 
ATOM     12  C   UNL     1      12.465 -16.552 -45.292  1.00  0.00     0.105 C 
ENDBRANCH   9  10
ENDBRANCH   8   9
ENDBRANCH   7   8
ENDBRANCH   1   7
BRANCH   4  13
ATOM     13  C   UNL     1       4.393 -13.910 -43.827  1.00  0.00     0.138 A 
ATOM     14  N   UNL     1       3.575 -13.065 -44.426  1.00  0.00    -0.228 NA
ATOM     15  N   UNL     1       3.678 -14.995 -43.381  1.00  0.00    -0.337 N 
ATOM     16  C   UNL     1       2.315 -13.622 -44.372  1.00  0.00     0.097 A 
ATOM     17  C   UNL     1       2.348 -14.834 -43.701  1.00  0.00     0.074 A 
ATOM     18  H   UNL     1       4.056 -15.774 -42.863  1.00  0.00     0.168 HD
BRANCH  16  19
ATOM     19  C   UNL     1       1.163 -12.950 -44.948  1.00  0.00     0.005 A 
ATOM     20  C   UNL     1       0.362 -12.078 -44.209  1.00  0.00     0.030 A 
ATOM     21  C   UNL     1       0.822 -13.207 -46.277  1.00  0.00     0.030 A 
ATOM     22  C   UNL     1      -0.720 -11.483 -44.838  1.00  0.00     0.111 A 
ATOM     23  C   UNL     1      -0.281 -12.564 -46.816  1.00  0.00     0.111 A 
ATOM     24  N   UNL     1      -1.057 -11.701 -46.126  1.00  0.00    -0.265 NA
ENDBRANCH  16  19
BRANCH  17  25
ATOM     25  C   UNL     1       1.331 -15.793 -43.286  1.00  0.00     0.001 A 
ATOM     26  C   UNL     1       1.627 -16.751 -42.294  1.00  0.00     0.011 A 
ATOM     27  C   UNL     1       0.056 -15.768 -43.879  1.00  0.00     0.014 A 
ATOM     28  C   UNL     1       0.668 -17.680 -41.885  1.00  0.00     0.011 A 
ATOM     29  C   UNL     1      -0.893 -16.694 -43.468  1.00  0.00    -0.038 A 
ATOM     30  C   UNL     1      -0.574 -17.626 -42.488  1.00  0.00     0.003 A 
ATOM     31  C   UNL     1      -2.299 -16.833 -43.957  1.00  0.00     0.043 C 
ATOM     32  C   UNL     1      -1.741 -18.459 -42.254  1.00  0.00     0.087 C 
ATOM     33  C   UNL     1      -2.869 -18.014 -43.155  1.00  0.00     0.065 C 
ATOM     34  N   UNL     1      -1.763 -19.427 -41.394  1.00  0.00    -0.093 NA
BRANCH  34  35
ATOM     35  O   UNL     1      -3.016 -20.049 -41.389  1.00  0.00    -0.411 OA
ATOM     36  H   UNL     1      -3.625 -19.292 -41.300  1.00  0.00     0.330 HD
ENDBRANCH  34  35
ENDBRANCH  17  25
ENDBRANCH   4  13
TORSDOF 8
ENDMDL
MODEL 20
REMARK VINA RESULT:    -7.054      3.860     10.314
REMARK INTER + INTRA:         -11.543
REMARK INTER:                 -10.275
REMARK INTRA:                  -1.268
REMARK UNBOUND:                -1.397
REMARK SMILES CN(C)CCOc1ccc(-c2nc(-c3ccncc3)c(-c3ccc4c(c3)CC/C4=N\O)[nH]2)cc1
REMARK SMILES IDX 7 1 8 2 9 3 10 4 33 5 34 6 6 7 5 8 4 9 2 10 1 11 3 12 11 13
REMARK SMILES IDX 12 14 32 15 13 16 20 17 14 19 15 20 19 21 16 22 18 23 17 24
REMARK SMILES IDX 21 25 22 26 26 27 23 28 25 29 24 30 27 31 29 32 28 33 30 34
REMARK SMILES IDX 31 35
REMARK H PARENT 32 18 31 36
ROOT
ATOM      1  C   UNL     1       4.370 -15.864 -46.062  1.00  0.00     0.119 A 
ATOM      2  C   UNL     1       3.006 -15.593 -45.997  1.00  0.00     0.047 A 
ATOM      3  C   UNL     1       2.561 -14.288 -45.749  1.00  0.00     0.016 A 
ATOM      4  C   UNL     1       3.464 -13.230 -45.561  1.00  0.00     0.017 A 
ATOM      5  C   UNL     1       4.833 -13.514 -45.630  1.00  0.00     0.016 A 
ATOM      6  C   UNL     1       5.277 -14.819 -45.877  1.00  0.00     0.047 A 
ENDROOT
BRANCH   1   7
ATOM      7  O   UNL     1       4.942 -17.083 -46.293  1.00  0.00    -0.492 OA
BRANCH   7   8
ATOM      8  C   UNL     1       6.129 -17.396 -45.558  1.00  0.00     0.245 C 
BRANCH   8   9
ATOM      9  C   UNL     1       5.778 -18.347 -44.397  1.00  0.00     0.125 C 
BRANCH   9  10
ATOM     10  N   UNL     1       6.705 -19.488 -44.224  1.00  0.00    -0.306 NA
ATOM     11  C   UNL     1       5.995 -20.769 -44.179  1.00  0.00     0.105 C 
ATOM     12  C   UNL     1       7.684 -19.503 -45.315  1.00  0.00     0.105 C 
ENDBRANCH   9  10
ENDBRANCH   8   9
ENDBRANCH   7   8
ENDBRANCH   1   7
BRANCH   4  13
ATOM     13  C   UNL     1       2.941 -11.884 -45.303  1.00  0.00     0.138 A 
ATOM     14  N   UNL     1       3.662 -10.787 -45.169  1.00  0.00    -0.228 NA
ATOM     15  N   UNL     1       1.610 -11.572 -45.161  1.00  0.00    -0.337 N 
ATOM     16  C   UNL     1       2.779  -9.753 -44.945  1.00  0.00     0.097 A 
ATOM     17  C   UNL     1       1.476 -10.223 -44.917  1.00  0.00     0.074 A 
ATOM     18  H   UNL     1       0.848 -12.232 -45.189  1.00  0.00     0.168 HD
BRANCH  16  19
ATOM     19  C   UNL     1       3.240  -8.388 -44.754  1.00  0.00     0.005 A 
ATOM     20  C   UNL     1       3.229  -7.446 -45.784  1.00  0.00     0.030 A 
ATOM     21  C   UNL     1       3.742  -8.009 -43.508  1.00  0.00     0.030 A 
ATOM     22  C   UNL     1       3.690  -6.167 -45.514  1.00  0.00     0.111 A 
ATOM     23  C   UNL     1       4.183  -6.708 -43.337  1.00  0.00     0.111 A 
ATOM     24  N   UNL     1       4.161  -5.775 -44.312  1.00  0.00    -0.265 NA
ENDBRANCH  16  19
BRANCH  17  25
ATOM     25  C   UNL     1       0.181  -9.612 -44.645  1.00  0.00     0.001 A 
ATOM     26  C   UNL     1      -0.603 -10.069 -43.566  1.00  0.00     0.011 A 
ATOM     27  C   UNL     1      -0.292  -8.570 -45.463  1.00  0.00     0.014 A 
ATOM     28  C   UNL     1      -1.848  -9.499 -43.291  1.00  0.00     0.011 A 
ATOM     29  C   UNL     1      -1.530  -8.007 -45.185  1.00  0.00    -0.038 A 
ATOM     30  C   UNL     1      -2.280  -8.476 -44.114  1.00  0.00     0.003 A 
ATOM     31  C   UNL     1      -2.207  -6.892 -45.916  1.00  0.00     0.043 C 
ATOM     32  C   UNL     1      -3.516  -7.715 -44.054  1.00  0.00     0.087 C 
ATOM     33  C   UNL     1      -3.537  -6.697 -45.170  1.00  0.00     0.065 C 
ATOM     34  N   UNL     1      -4.432  -7.915 -43.162  1.00  0.00    -0.093 NA
BRANCH  34  35
ATOM     35  O   UNL     1      -5.504  -7.036 -43.354  1.00  0.00    -0.411 OA
ATOM     36  H   UNL     1      -5.849  -7.316 -44.223  1.00  0.00     0.330 HD
ENDBRANCH  34  35
ENDBRANCH  17  25
ENDBRANCH   4  13
TORSDOF 8
ENDMDL
