MODEL 1
REMARK VINA RESULT:    -9.773      0.000      0.000
REMARK INTER + INTRA:         -13.424
REMARK INTER:                 -13.201
REMARK INTRA:                  -0.223
REMARK UNBOUND:                -0.223
REMARK SMILES CNC(=O)c1cc(Oc2ccc(NC(=O)Nc3ccc(Cl)c(C(F)(F)F)c3)cc2)ccn1
REMARK SMILES IDX 9 1 10 2 11 3 12 4 28 5 29 6 8 7 7 8 5 9 6 10 32 11 31 12
REMARK SMILES IDX 30 13 3 14 2 15 4 16 1 17 13 19 14 20 15 21 16 22 17 25
REMARK SMILES IDX 18 26 27 27 19 28 22 29 20 30 21 31 23 32 24 33 25 34 26 35
REMARK H PARENT 2 18 13 23 16 24
ROOT
ATOM      1  C   UNL     1       0.163 -10.044 -45.068  1.00  0.00     0.127 A 
ATOM      2  C   UNL     1       0.629 -10.042 -43.756  1.00  0.00     0.049 A 
ATOM      3  C   UNL     1       0.819 -11.256 -43.092  1.00  0.00     0.030 A 
ATOM      4  C   UNL     1       0.535 -12.475 -43.728  1.00  0.00     0.043 A 
ATOM      5  C   UNL     1       0.038 -12.453 -45.035  1.00  0.00     0.030 A 
ATOM      6  C   UNL     1      -0.155 -11.240 -45.703  1.00  0.00     0.049 A 
ENDROOT
BRANCH   1   7
ATOM      7  O   UNL     1      -0.054  -8.863 -45.729  1.00  0.00    -0.457 OA
BRANCH   7   8
ATOM      8  C   UNL     1      -0.699  -7.850 -45.051  1.00  0.00     0.131 A 
ATOM      9  C   UNL     1      -2.649  -7.208 -43.846  1.00  0.00     0.131 A 
ATOM     10  C   UNL     1      -1.940  -8.189 -44.522  1.00  0.00     0.081 A 
ATOM     11  N   UNL     1      -2.203  -5.931 -43.667  1.00  0.00    -0.251 NA
ATOM     12  C   UNL     1      -1.001  -5.638 -44.202  1.00  0.00     0.116 A 
ATOM     13  C   UNL     1      -0.221  -6.549 -44.898  1.00  0.00     0.067 A 
BRANCH   9  14
ATOM     14  C   UNL     1      -4.001  -7.523 -43.281  1.00  0.00     0.269 C 
ATOM     15  N   UNL     1      -4.157  -8.833 -42.881  1.00  0.00    -0.354 N 
ATOM     16  O   UNL     1      -4.869  -6.664 -43.180  1.00  0.00    -0.268 OA
ATOM     17  C   UNL     1      -5.325  -9.288 -42.176  1.00  0.00     0.143 C 
ATOM     18  H   UNL     1      -3.322  -9.411 -42.919  1.00  0.00     0.163 HD
ENDBRANCH   9  14
ENDBRANCH   7   8
ENDBRANCH   1   7
BRANCH   4  19
ATOM     19  N   UNL     1       0.768 -13.654 -42.988  1.00  0.00    -0.308 N 
ATOM     20  C   UNL     1       0.172 -14.897 -43.164  1.00  0.00     0.323 C 
ATOM     21  O   UNL     1      -0.662 -15.158 -44.021  1.00  0.00    -0.248 OA
ATOM     22  N   UNL     1       0.660 -15.807 -42.234  1.00  0.00    -0.308 N 
ATOM     23  H   UNL     1       1.480 -13.589 -42.279  1.00  0.00     0.171 HD
ATOM     24  H   UNL     1       1.321 -15.451 -41.562  1.00  0.00     0.171 HD
BRANCH  22  25
ATOM     25  C   UNL     1       0.321 -17.171 -42.105  1.00  0.00     0.043 A 
ATOM     26  C   UNL     1      -0.902 -17.716 -42.491  1.00  0.00     0.028 A 
ATOM     27  C   UNL     1       1.289 -18.021 -41.554  1.00  0.00     0.040 A 
ATOM     28  C   UNL     1      -1.151 -19.082 -42.331  1.00  0.00     0.023 A 
ATOM     29  C   UNL     1       1.054 -19.404 -41.389  1.00  0.00     0.076 A 
ATOM     30  C   UNL     1      -0.180 -19.923 -41.786  1.00  0.00     0.053 A 
ATOM     31  Cl  UNL     1      -0.564 -21.598 -41.642  1.00  0.00    -0.084 Cl
BRANCH  29  32
ATOM     32  C   UNL     1       2.136 -20.286 -40.826  1.00  0.00     0.417 C 
ATOM     33  F   UNL     1       3.227 -19.580 -40.403  1.00  0.00    -0.166 F 
ATOM     34  F   UNL     1       1.741 -21.012 -39.744  1.00  0.00    -0.166 F 
ATOM     35  F   UNL     1       2.617 -21.175 -41.740  1.00  0.00    -0.166 F 
ENDBRANCH  29  32
ENDBRANCH  22  25
ENDBRANCH   4  19
TORSDOF 6
ENDMDL
MODEL 2
REMARK VINA RESULT:    -9.579      2.879      4.259
REMARK INTER + INTRA:         -13.162
REMARK INTER:                 -12.328
REMARK INTRA:                  -0.834
REMARK UNBOUND:                -0.223
REMARK SMILES CNC(=O)c1cc(Oc2ccc(NC(=O)Nc3ccc(Cl)c(C(F)(F)F)c3)cc2)ccn1
REMARK SMILES IDX 9 1 10 2 11 3 12 4 28 5 29 6 8 7 7 8 5 9 6 10 32 11 31 12
REMARK SMILES IDX 30 13 3 14 2 15 4 16 1 17 13 19 14 20 15 21 16 22 17 25
REMARK SMILES IDX 18 26 27 27 19 28 22 29 20 30 21 31 23 32 24 33 25 34 26 35
REMARK H PARENT 2 18 13 23 16 24
ROOT
ATOM      1  C   UNL     1       1.325 -10.245 -44.924  1.00  0.00     0.127 A 
ATOM      2  C   UNL     1       0.358 -10.284 -43.922  1.00  0.00     0.049 A 
ATOM      3  C   UNL     1       0.179 -11.457 -43.186  1.00  0.00     0.030 A 
ATOM      4  C   UNL     1       0.951 -12.598 -43.452  1.00  0.00     0.043 A 
ATOM      5  C   UNL     1       1.894 -12.548 -44.484  1.00  0.00     0.030 A 
ATOM      6  C   UNL     1       2.077 -11.377 -45.224  1.00  0.00     0.049 A 
ENDROOT
BRANCH   1   7
ATOM      7  O   UNL     1       1.501  -9.112 -45.675  1.00  0.00    -0.457 OA
BRANCH   7   8
ATOM      8  C   UNL     1       2.056  -8.009 -45.061  1.00  0.00     0.131 A 
ATOM      9  C   UNL     1       3.809  -7.192 -43.673  1.00  0.00     0.131 A 
ATOM     10  C   UNL     1       3.213  -8.257 -44.331  1.00  0.00     0.081 A 
ATOM     11  N   UNL     1       3.329  -5.915 -43.699  1.00  0.00    -0.251 NA
ATOM     12  C   UNL     1       2.200  -5.716 -44.409  1.00  0.00     0.116 A 
ATOM     13  C   UNL     1       1.531  -6.717 -45.096  1.00  0.00     0.067 A 
BRANCH   9  14
ATOM     14  C   UNL     1       5.044  -7.419 -42.855  1.00  0.00     0.269 C 
ATOM     15  N   UNL     1       5.855  -8.432 -43.323  1.00  0.00    -0.354 N 
ATOM     16  O   UNL     1       5.294  -6.735 -41.870  1.00  0.00    -0.268 OA
ATOM     17  C   UNL     1       7.154  -8.695 -42.765  1.00  0.00     0.143 C 
ATOM     18  H   UNL     1       5.584  -8.842 -44.212  1.00  0.00     0.163 HD
ENDBRANCH   9  14
ENDBRANCH   7   8
ENDBRANCH   1   7
BRANCH   4  19
ATOM     19  N   UNL     1       0.712 -13.736 -42.652  1.00  0.00    -0.308 N 
ATOM     20  C   UNL     1       0.462 -15.035 -43.078  1.00  0.00     0.323 C 
ATOM     21  O   UNL     1       0.421 -15.392 -44.248  1.00  0.00    -0.248 OA
ATOM     22  N   UNL     1       0.271 -15.876 -41.989  1.00  0.00    -0.308 N 
ATOM     23  H   UNL     1       0.772 -13.589 -41.658  1.00  0.00     0.171 HD
ATOM     24  H   UNL     1       0.299 -15.445 -41.078  1.00  0.00     0.171 HD
BRANCH  22  25
ATOM     25  C   UNL     1       0.020 -17.265 -42.007  1.00  0.00     0.043 A 
ATOM     26  C   UNL     1      -1.166 -17.842 -42.457  1.00  0.00     0.028 A 
ATOM     27  C   UNL     1       1.040 -18.106 -41.544  1.00  0.00     0.040 A 
ATOM     28  C   UNL     1      -1.328 -19.231 -42.444  1.00  0.00     0.023 A 
ATOM     29  C   UNL     1       0.894 -19.511 -41.529  1.00  0.00     0.076 A 
ATOM     30  C   UNL     1      -0.306 -20.062 -41.986  1.00  0.00     0.053 A 
ATOM     31  Cl  UNL     1      -0.582 -21.763 -42.024  1.00  0.00    -0.084 Cl
BRANCH  29  32
ATOM     32  C   UNL     1       2.030 -20.378 -41.056  1.00  0.00     0.417 C 
ATOM     33  F   UNL     1       3.117 -19.653 -40.658  1.00  0.00    -0.166 F 
ATOM     34  F   UNL     1       1.712 -21.160 -39.988  1.00  0.00    -0.166 F 
ATOM     35  F   UNL     1       2.493 -21.213 -42.029  1.00  0.00    -0.166 F 
ENDBRANCH  29  32
ENDBRANCH  22  25
ENDBRANCH   4  19
TORSDOF 6
ENDMDL
MODEL 3
REMARK VINA RESULT:    -9.556      2.607      3.097
REMARK INTER + INTRA:         -13.130
REMARK INTER:                 -12.823
REMARK INTRA:                  -0.307
REMARK UNBOUND:                -0.223
REMARK SMILES CNC(=O)c1cc(Oc2ccc(NC(=O)Nc3ccc(Cl)c(C(F)(F)F)c3)cc2)ccn1
REMARK SMILES IDX 9 1 10 2 11 3 12 4 28 5 29 6 8 7 7 8 5 9 6 10 32 11 31 12
REMARK SMILES IDX 30 13 3 14 2 15 4 16 1 17 13 19 14 20 15 21 16 22 17 25
REMARK SMILES IDX 18 26 27 27 19 28 22 29 20 30 21 31 23 32 24 33 25 34 26 35
REMARK H PARENT 2 18 13 23 16 24
ROOT
ATOM      1  C   UNL     1       0.324 -11.345 -45.014  1.00  0.00     0.127 A 
ATOM      2  C   UNL     1       0.606 -11.432 -43.653  1.00  0.00     0.049 A 
ATOM      3  C   UNL     1       0.692 -12.687 -43.047  1.00  0.00     0.030 A 
ATOM      4  C   UNL     1       0.486 -13.859 -43.790  1.00  0.00     0.043 A 
ATOM      5  C   UNL     1       0.173 -13.750 -45.149  1.00  0.00     0.030 A 
ATOM      6  C   UNL     1       0.084 -12.495 -45.759  1.00  0.00     0.049 A 
ENDROOT
BRANCH   1   7
ATOM      7  O   UNL     1       0.211 -10.122 -45.623  1.00  0.00    -0.457 OA
BRANCH   7   8
ATOM      8  C   UNL     1      -0.693  -9.221 -45.102  1.00  0.00     0.131 A 
ATOM      9  C   UNL     1      -2.925  -8.870 -44.349  1.00  0.00     0.131 A 
ATOM     10  C   UNL     1      -1.963  -9.732 -44.854  1.00  0.00     0.081 A 
ATOM     11  N   UNL     1      -2.700  -7.552 -44.079  1.00  0.00    -0.251 NA
ATOM     12  C   UNL     1      -1.461  -7.091 -44.341  1.00  0.00     0.116 A 
ATOM     13  C   UNL     1      -0.436  -7.873 -44.850  1.00  0.00     0.067 A 
BRANCH   9  14
ATOM     14  C   UNL     1      -4.313  -9.372 -44.090  1.00  0.00     0.269 C 
ATOM     15  N   UNL     1      -4.373 -10.692 -43.693  1.00  0.00    -0.354 N 
ATOM     16  O   UNL     1      -5.290  -8.644 -44.212  1.00  0.00    -0.268 OA
ATOM     17  C   UNL     1      -5.596 -11.306 -43.252  1.00  0.00     0.143 C 
ATOM     18  H   UNL     1      -3.480 -11.146 -43.526  1.00  0.00     0.163 HD
ENDBRANCH   9  14
ENDBRANCH   7   8
ENDBRANCH   1   7
BRANCH   4  19
ATOM     19  N   UNL     1       0.605 -15.086 -43.101  1.00  0.00    -0.308 N 
ATOM     20  C   UNL     1      -0.293 -16.146 -43.098  1.00  0.00     0.323 C 
ATOM     21  O   UNL     1      -1.347 -16.173 -43.720  1.00  0.00    -0.248 OA
ATOM     22  N   UNL     1       0.175 -17.177 -42.293  1.00  0.00    -0.308 N 
ATOM     23  H   UNL     1       1.461 -15.215 -42.588  1.00  0.00     0.171 HD
ATOM     24  H   UNL     1       1.044 -17.011 -41.810  1.00  0.00     0.171 HD
BRANCH  22  25
ATOM     25  C   UNL     1      -0.436 -18.427 -42.052  1.00  0.00     0.043 A 
ATOM     26  C   UNL     1       0.260 -19.597 -41.754  1.00  0.00     0.028 A 
ATOM     27  C   UNL     1      -1.835 -18.478 -42.118  1.00  0.00     0.040 A 
ATOM     28  C   UNL     1      -0.428 -20.792 -41.525  1.00  0.00     0.023 A 
ATOM     29  C   UNL     1      -2.544 -19.677 -41.886  1.00  0.00     0.076 A 
ATOM     30  C   UNL     1      -1.821 -20.834 -41.588  1.00  0.00     0.053 A 
ATOM     31  Cl  UNL     1      -2.589 -22.345 -41.272  1.00  0.00    -0.084 Cl
BRANCH  29  32
ATOM     32  C   UNL     1      -4.049 -19.679 -41.932  1.00  0.00     0.417 C 
ATOM     33  F   UNL     1      -4.564 -18.499 -42.389  1.00  0.00    -0.166 F 
ATOM     34  F   UNL     1      -4.570 -20.635 -42.748  1.00  0.00    -0.166 F 
ATOM     35  F   UNL     1      -4.612 -19.863 -40.704  1.00  0.00    -0.166 F 
ENDBRANCH  29  32
ENDBRANCH  22  25
ENDBRANCH   4  19
TORSDOF 6
ENDMDL
MODEL 4
REMARK VINA RESULT:    -9.436      3.001      3.735
REMARK INTER + INTRA:         -12.968
REMARK INTER:                 -12.617
REMARK INTRA:                  -0.351
REMARK UNBOUND:                -0.223
REMARK SMILES CNC(=O)c1cc(Oc2ccc(NC(=O)Nc3ccc(Cl)c(C(F)(F)F)c3)cc2)ccn1
REMARK SMILES IDX 9 1 10 2 11 3 12 4 28 5 29 6 8 7 7 8 5 9 6 10 32 11 31 12
REMARK SMILES IDX 30 13 3 14 2 15 4 16 1 17 13 19 14 20 15 21 16 22 17 25
REMARK SMILES IDX 18 26 27 27 19 28 22 29 20 30 21 31 23 32 24 33 25 34 26 35
REMARK H PARENT 2 18 13 23 16 24
ROOT
ATOM      1  C   UNL     1       0.556 -11.526 -44.884  1.00  0.00     0.127 A 
ATOM      2  C   UNL     1       0.331 -11.664 -43.516  1.00  0.00     0.049 A 
ATOM      3  C   UNL     1       0.386 -12.933 -42.935  1.00  0.00     0.030 A 
ATOM      4  C   UNL     1       0.652 -14.069 -43.715  1.00  0.00     0.043 A 
ATOM      5  C   UNL     1       0.844 -13.912 -45.091  1.00  0.00     0.030 A 
ATOM      6  C   UNL     1       0.789 -12.644 -45.677  1.00  0.00     0.049 A 
ENDROOT
BRANCH   1   7
ATOM      7  O   UNL     1       0.483 -10.292 -45.477  1.00  0.00    -0.457 OA
BRANCH   7   8
ATOM      8  C   UNL     1      -0.748  -9.859 -45.921  1.00  0.00     0.131 A 
ATOM      9  C   UNL     1      -2.249  -8.020 -46.102  1.00  0.00     0.131 A 
ATOM     10  C   UNL     1      -1.018  -8.513 -45.697  1.00  0.00     0.081 A 
ATOM     11  N   UNL     1      -3.211  -8.775 -46.707  1.00  0.00    -0.251 NA
ATOM     12  C   UNL     1      -2.917 -10.076 -46.898  1.00  0.00     0.116 A 
ATOM     13  C   UNL     1      -1.717 -10.661 -46.525  1.00  0.00     0.067 A 
BRANCH   9  14
ATOM     14  C   UNL     1      -2.591  -6.581 -45.858  1.00  0.00     0.269 C 
ATOM     15  N   UNL     1      -3.384  -6.368 -44.750  1.00  0.00    -0.354 N 
ATOM     16  O   UNL     1      -2.173  -5.691 -46.588  1.00  0.00    -0.268 OA
ATOM     17  C   UNL     1      -3.689  -5.048 -44.265  1.00  0.00     0.143 C 
ATOM     18  H   UNL     1      -3.566  -7.183 -44.171  1.00  0.00     0.163 HD
ENDBRANCH   9  14
ENDBRANCH   7   8
ENDBRANCH   1   7
BRANCH   4  19
ATOM     19  N   UNL     1       0.701 -15.310 -43.044  1.00  0.00    -0.308 N 
ATOM     20  C   UNL     1      -0.268 -16.306 -43.032  1.00  0.00     0.323 C 
ATOM     21  O   UNL     1      -1.336 -16.250 -43.628  1.00  0.00    -0.248 OA
ATOM     22  N   UNL     1       0.146 -17.378 -42.252  1.00  0.00    -0.308 N 
ATOM     23  H   UNL     1       1.558 -15.507 -42.555  1.00  0.00     0.171 HD
ATOM     24  H   UNL     1       1.036 -17.280 -41.789  1.00  0.00     0.171 HD
BRANCH  22  25
ATOM     25  C   UNL     1      -0.545 -18.586 -42.012  1.00  0.00     0.043 A 
ATOM     26  C   UNL     1       0.073 -19.799 -41.715  1.00  0.00     0.028 A 
ATOM     27  C   UNL     1      -1.944 -18.545 -42.077  1.00  0.00     0.040 A 
ATOM     28  C   UNL     1      -0.691 -20.947 -41.487  1.00  0.00     0.023 A 
ATOM     29  C   UNL     1      -2.731 -19.695 -41.844  1.00  0.00     0.076 A 
ATOM     30  C   UNL     1      -2.084 -20.898 -41.548  1.00  0.00     0.053 A 
ATOM     31  Cl  UNL     1      -2.949 -22.355 -41.233  1.00  0.00    -0.084 Cl
BRANCH  29  32
ATOM     32  C   UNL     1      -4.232 -19.599 -41.888  1.00  0.00     0.417 C 
ATOM     33  F   UNL     1      -4.670 -18.408 -42.396  1.00  0.00    -0.166 F 
ATOM     34  F   UNL     1      -4.818 -20.553 -42.662  1.00  0.00    -0.166 F 
ATOM     35  F   UNL     1      -4.801 -19.692 -40.654  1.00  0.00    -0.166 F 
ENDBRANCH  29  32
ENDBRANCH  22  25
ENDBRANCH   4  19
TORSDOF 6
ENDMDL
MODEL 5
REMARK VINA RESULT:    -9.380      3.494      4.459
REMARK INTER + INTRA:         -12.894
REMARK INTER:                 -12.104
REMARK INTRA:                  -0.790
REMARK UNBOUND:                -0.223
REMARK SMILES CNC(=O)c1cc(Oc2ccc(NC(=O)Nc3ccc(Cl)c(C(F)(F)F)c3)cc2)ccn1
REMARK SMILES IDX 9 1 10 2 11 3 12 4 28 5 29 6 8 7 7 8 5 9 6 10 32 11 31 12
REMARK SMILES IDX 30 13 3 14 2 15 4 16 1 17 13 19 14 20 15 21 16 22 17 25
REMARK SMILES IDX 18 26 27 27 19 28 22 29 20 30 21 31 23 32 24 33 25 34 26 35
REMARK H PARENT 2 18 13 23 16 24
ROOT
ATOM      1  C   UNL     1       2.541 -11.137 -45.372  1.00  0.00     0.127 A 
ATOM      2  C   UNL     1       3.218 -12.243 -44.863  1.00  0.00     0.049 A 
ATOM      3  C   UNL     1       2.518 -13.194 -44.117  1.00  0.00     0.030 A 
ATOM      4  C   UNL     1       1.146 -13.041 -43.865  1.00  0.00     0.043 A 
ATOM      5  C   UNL     1       0.492 -11.907 -44.358  1.00  0.00     0.030 A 
ATOM      6  C   UNL     1       1.188 -10.952 -45.104  1.00  0.00     0.049 A 
ENDROOT
BRANCH   1   7
ATOM      7  O   UNL     1       3.214 -10.180 -46.086  1.00  0.00    -0.457 OA
BRANCH   7   8
ATOM      8  C   UNL     1       4.137  -9.403 -45.418  1.00  0.00     0.131 A 
ATOM      9  C   UNL     1       4.477  -7.691 -43.799  1.00  0.00     0.131 A 
ATOM     10  C   UNL     1       3.602  -8.515 -44.490  1.00  0.00     0.081 A 
ATOM     11  N   UNL     1       5.830  -7.698 -43.973  1.00  0.00    -0.251 NA
ATOM     12  C   UNL     1       6.310  -8.565 -44.888  1.00  0.00     0.116 A 
ATOM     13  C   UNL     1       5.515  -9.425 -45.629  1.00  0.00     0.067 A 
BRANCH   9  14
ATOM     14  C   UNL     1       3.943  -6.702 -42.808  1.00  0.00     0.269 C 
ATOM     15  N   UNL     1       4.119  -7.069 -41.490  1.00  0.00    -0.354 N 
ATOM     16  O   UNL     1       3.415  -5.656 -43.167  1.00  0.00    -0.268 OA
ATOM     17  C   UNL     1       3.813  -6.184 -40.398  1.00  0.00     0.143 C 
ATOM     18  H   UNL     1       4.671  -7.908 -41.333  1.00  0.00     0.163 HD
ENDBRANCH   9  14
ENDBRANCH   7   8
ENDBRANCH   1   7
BRANCH   4  19
ATOM     19  N   UNL     1       0.515 -14.056 -43.113  1.00  0.00    -0.308 N 
ATOM     20  C   UNL     1       0.565 -15.427 -43.330  1.00  0.00     0.323 C 
ATOM     21  O   UNL     1       1.192 -15.971 -44.230  1.00  0.00    -0.248 OA
ATOM     22  N   UNL     1      -0.192 -16.099 -42.378  1.00  0.00    -0.308 N 
ATOM     23  H   UNL     1       0.005 -13.744 -42.303  1.00  0.00     0.171 HD
ATOM     24  H   UNL     1      -0.686 -15.526 -41.711  1.00  0.00     0.171 HD
BRANCH  22  25
ATOM     25  C   UNL     1      -0.371 -17.493 -42.247  1.00  0.00     0.043 A 
ATOM     26  C   UNL     1      -1.532 -18.173 -42.608  1.00  0.00     0.028 A 
ATOM     27  C   UNL     1       0.700 -18.228 -41.720  1.00  0.00     0.040 A 
ATOM     28  C   UNL     1      -1.620 -19.559 -42.448  1.00  0.00     0.023 A 
ATOM     29  C   UNL     1       0.628 -19.628 -41.555  1.00  0.00     0.076 A 
ATOM     30  C   UNL     1      -0.548 -20.285 -41.927  1.00  0.00     0.053 A 
ATOM     31  Cl  UNL     1      -0.735 -21.992 -41.782  1.00  0.00    -0.084 Cl
BRANCH  29  32
ATOM     32  C   UNL     1       1.815 -20.383 -41.019  1.00  0.00     0.417 C 
ATOM     33  F   UNL     1       2.866 -19.565 -40.714  1.00  0.00    -0.166 F 
ATOM     34  F   UNL     1       1.554 -21.069 -39.873  1.00  0.00    -0.166 F 
ATOM     35  F   UNL     1       2.311 -21.285 -41.912  1.00  0.00    -0.166 F 
ENDBRANCH  29  32
ENDBRANCH  22  25
ENDBRANCH   4  19
TORSDOF 6
ENDMDL
MODEL 6
REMARK VINA RESULT:    -9.167      4.073      5.003
REMARK INTER + INTRA:         -12.606
REMARK INTER:                 -12.359
REMARK INTRA:                  -0.247
REMARK UNBOUND:                -0.223
REMARK SMILES CNC(=O)c1cc(Oc2ccc(NC(=O)Nc3ccc(Cl)c(C(F)(F)F)c3)cc2)ccn1
REMARK SMILES IDX 9 1 10 2 11 3 12 4 28 5 29 6 8 7 7 8 5 9 6 10 32 11 31 12
REMARK SMILES IDX 30 13 3 14 2 15 4 16 1 17 13 19 14 20 15 21 16 22 17 25
REMARK SMILES IDX 18 26 27 27 19 28 22 29 20 30 21 31 23 32 24 33 25 34 26 35
REMARK H PARENT 2 18 13 23 16 24
ROOT
ATOM      1  C   UNL     1       2.862 -11.635 -45.529  1.00  0.00     0.127 A 
ATOM      2  C   UNL     1       3.600 -12.816 -45.496  1.00  0.00     0.049 A 
ATOM      3  C   UNL     1       3.123 -13.904 -44.762  1.00  0.00     0.030 A 
ATOM      4  C   UNL     1       1.918 -13.816 -44.048  1.00  0.00     0.043 A 
ATOM      5  C   UNL     1       1.208 -12.611 -44.068  1.00  0.00     0.030 A 
ATOM      6  C   UNL     1       1.683 -11.519 -44.801  1.00  0.00     0.049 A 
ENDROOT
BRANCH   1   7
ATOM      7  O   UNL     1       3.324 -10.547 -46.223  1.00  0.00    -0.457 OA
BRANCH   7   8
ATOM      8  C   UNL     1       4.297  -9.768 -45.634  1.00  0.00     0.131 A 
ATOM      9  C   UNL     1       4.755  -7.979 -44.130  1.00  0.00     0.131 A 
ATOM     10  C   UNL     1       3.827  -8.809 -44.742  1.00  0.00     0.081 A 
ATOM     11  N   UNL     1       6.100  -8.046 -44.351  1.00  0.00    -0.251 NA
ATOM     12  C   UNL     1       6.515  -8.981 -45.229  1.00  0.00     0.116 A 
ATOM     13  C   UNL     1       5.665  -9.852 -45.891  1.00  0.00     0.067 A 
BRANCH   9  14
ATOM     14  C   UNL     1       4.291  -6.916 -43.181  1.00  0.00     0.269 C 
ATOM     15  N   UNL     1       4.194  -7.331 -41.870  1.00  0.00    -0.354 N 
ATOM     16  O   UNL     1       4.045  -5.779 -43.564  1.00  0.00    -0.268 OA
ATOM     17  C   UNL     1       3.916  -6.419 -40.793  1.00  0.00     0.143 C 
ATOM     18  H   UNL     1       4.536  -8.268 -41.675  1.00  0.00     0.163 HD
ENDBRANCH   9  14
ENDBRANCH   7   8
ENDBRANCH   1   7
BRANCH   4  19
ATOM     19  N   UNL     1       1.505 -14.968 -43.344  1.00  0.00    -0.308 N 
ATOM     20  C   UNL     1       0.298 -15.647 -43.463  1.00  0.00     0.323 C 
ATOM     21  O   UNL     1      -0.606 -15.339 -44.229  1.00  0.00    -0.248 OA
ATOM     22  N   UNL     1       0.263 -16.731 -42.595  1.00  0.00    -0.308 N 
ATOM     23  H   UNL     1       2.185 -15.360 -42.714  1.00  0.00     0.171 HD
ATOM     24  H   UNL     1       1.063 -16.852 -41.994  1.00  0.00     0.171 HD
BRANCH  22  25
ATOM     25  C   UNL     1      -0.776 -17.675 -42.438  1.00  0.00     0.043 A 
ATOM     26  C   UNL     1      -2.123 -17.404 -42.665  1.00  0.00     0.028 A 
ATOM     27  C   UNL     1      -0.411 -18.965 -42.030  1.00  0.00     0.040 A 
ATOM     28  C   UNL     1      -3.086 -18.402 -42.489  1.00  0.00     0.023 A 
ATOM     29  C   UNL     1      -1.371 -19.985 -41.851  1.00  0.00     0.076 A 
ATOM     30  C   UNL     1      -2.715 -19.685 -42.087  1.00  0.00     0.053 A 
ATOM     31  Cl  UNL     1      -3.965 -20.860 -41.914  1.00  0.00    -0.084 Cl
BRANCH  29  32
ATOM     32  C   UNL     1      -0.932 -21.366 -41.447  1.00  0.00     0.417 C 
ATOM     33  F   UNL     1      -1.877 -22.028 -40.714  1.00  0.00    -0.166 F 
ATOM     34  F   UNL     1      -0.661 -22.184 -42.501  1.00  0.00    -0.166 F 
ATOM     35  F   UNL     1       0.184 -21.354 -40.663  1.00  0.00    -0.166 F 
ENDBRANCH  29  32
ENDBRANCH  22  25
ENDBRANCH   4  19
TORSDOF 6
ENDMDL
MODEL 7
REMARK VINA RESULT:    -9.122      4.031      5.903
REMARK INTER + INTRA:         -12.544
REMARK INTER:                 -12.150
REMARK INTRA:                  -0.394
REMARK UNBOUND:                -0.223
REMARK SMILES CNC(=O)c1cc(Oc2ccc(NC(=O)Nc3ccc(Cl)c(C(F)(F)F)c3)cc2)ccn1
REMARK SMILES IDX 9 1 10 2 11 3 12 4 28 5 29 6 8 7 7 8 5 9 6 10 32 11 31 12
REMARK SMILES IDX 30 13 3 14 2 15 4 16 1 17 13 19 14 20 15 21 16 22 17 25
REMARK SMILES IDX 18 26 27 27 19 28 22 29 20 30 21 31 23 32 24 33 25 34 26 35
REMARK H PARENT 2 18 13 23 16 24
ROOT
ATOM      1  C   UNL     1       2.253 -11.554 -45.395  1.00  0.00     0.127 A 
ATOM      2  C   UNL     1       2.654 -12.839 -45.751  1.00  0.00     0.049 A 
ATOM      3  C   UNL     1       2.244 -13.926 -44.975  1.00  0.00     0.030 A 
ATOM      4  C   UNL     1       1.445 -13.736 -43.837  1.00  0.00     0.043 A 
ATOM      5  C   UNL     1       1.080 -12.434 -43.480  1.00  0.00     0.030 A 
ATOM      6  C   UNL     1       1.489 -11.343 -44.253  1.00  0.00     0.049 A 
ENDROOT
BRANCH   1   7
ATOM      7  O   UNL     1       2.664 -10.471 -46.129  1.00  0.00    -0.457 OA
BRANCH   7   8
ATOM      8  C   UNL     1       3.648  -9.664 -45.598  1.00  0.00     0.131 A 
ATOM      9  C   UNL     1       5.949  -9.475 -45.016  1.00  0.00     0.131 A 
ATOM     10  C   UNL     1       4.919 -10.229 -45.558  1.00  0.00     0.081 A 
ATOM     11  N   UNL     1       5.791  -8.214 -44.519  1.00  0.00    -0.251 NA
ATOM     12  C   UNL     1       4.543  -7.706 -44.566  1.00  0.00     0.116 A 
ATOM     13  C   UNL     1       3.451  -8.383 -45.084  1.00  0.00     0.067 A 
BRANCH   9  14
ATOM     14  C   UNL     1       7.329 -10.053 -44.931  1.00  0.00     0.269 C 
ATOM     15  N   UNL     1       7.368 -11.368 -44.517  1.00  0.00    -0.354 N 
ATOM     16  O   UNL     1       8.318  -9.394 -45.228  1.00  0.00    -0.268 OA
ATOM     17  C   UNL     1       8.582 -12.139 -44.521  1.00  0.00     0.143 C 
ATOM     18  H   UNL     1       6.468 -11.826 -44.411  1.00  0.00     0.163 HD
ENDBRANCH   9  14
ENDBRANCH   7   8
ENDBRANCH   1   7
BRANCH   4  19
ATOM     19  N   UNL     1       1.067 -14.891 -43.118  1.00  0.00    -0.308 N 
ATOM     20  C   UNL     1      -0.054 -15.686 -43.322  1.00  0.00     0.323 C 
ATOM     21  O   UNL     1      -0.898 -15.499 -44.189  1.00  0.00    -0.248 OA
ATOM     22  N   UNL     1      -0.081 -16.731 -42.407  1.00  0.00    -0.308 N 
ATOM     23  H   UNL     1       1.710 -15.189 -42.404  1.00  0.00     0.171 HD
ATOM     24  H   UNL     1       0.660 -16.750 -41.724  1.00  0.00     0.171 HD
BRANCH  22  25
ATOM     25  C   UNL     1      -1.041 -17.762 -42.305  1.00  0.00     0.043 A 
ATOM     26  C   UNL     1      -2.402 -17.595 -42.550  1.00  0.00     0.028 A 
ATOM     27  C   UNL     1      -0.577 -19.032 -41.937  1.00  0.00     0.040 A 
ATOM     28  C   UNL     1      -3.282 -18.674 -42.430  1.00  0.00     0.023 A 
ATOM     29  C   UNL     1      -1.453 -20.134 -41.816  1.00  0.00     0.076 A 
ATOM     30  C   UNL     1      -2.812 -19.938 -42.068  1.00  0.00     0.053 A 
ATOM     31  Cl  UNL     1      -3.963 -21.217 -41.964  1.00  0.00    -0.084 Cl
BRANCH  29  32
ATOM     32  C   UNL     1      -0.907 -21.489 -41.453  1.00  0.00     0.417 C 
ATOM     33  F   UNL     1      -1.847 -22.302 -40.884  1.00  0.00    -0.166 F 
ATOM     34  F   UNL     1      -0.429 -22.189 -42.518  1.00  0.00    -0.166 F 
ATOM     35  F   UNL     1       0.105 -21.422 -40.542  1.00  0.00    -0.166 F 
ENDBRANCH  29  32
ENDBRANCH  22  25
ENDBRANCH   4  19
TORSDOF 6
ENDMDL
MODEL 8
REMARK VINA RESULT:    -9.012      7.386     11.082
REMARK INTER + INTRA:         -12.395
REMARK INTER:                 -12.003
REMARK INTRA:                  -0.393
REMARK UNBOUND:                -0.223
REMARK SMILES CNC(=O)c1cc(Oc2ccc(NC(=O)Nc3ccc(Cl)c(C(F)(F)F)c3)cc2)ccn1
REMARK SMILES IDX 9 1 10 2 11 3 12 4 28 5 29 6 8 7 7 8 5 9 6 10 32 11 31 12
REMARK SMILES IDX 30 13 3 14 2 15 4 16 1 17 13 19 14 20 15 21 16 22 17 25
REMARK SMILES IDX 18 26 27 27 19 28 22 29 20 30 21 31 23 32 24 33 25 34 26 35
REMARK H PARENT 2 18 13 23 16 24
ROOT
ATOM      1  C   UNL     1       6.115  -8.278 -43.225  1.00  0.00     0.127 A 
ATOM      2  C   UNL     1       5.360  -7.622 -42.256  1.00  0.00     0.049 A 
ATOM      3  C   UNL     1       4.146  -7.032 -42.614  1.00  0.00     0.030 A 
ATOM      4  C   UNL     1       3.686  -7.082 -43.939  1.00  0.00     0.043 A 
ATOM      5  C   UNL     1       4.475  -7.717 -44.903  1.00  0.00     0.030 A 
ATOM      6  C   UNL     1       5.691  -8.308 -44.550  1.00  0.00     0.049 A 
ENDROOT
BRANCH   1   7
ATOM      7  O   UNL     1       7.322  -8.842 -42.900  1.00  0.00    -0.457 OA
BRANCH   7   8
ATOM      8  C   UNL     1       7.393 -10.217 -42.821  1.00  0.00     0.131 A 
ATOM      9  C   UNL     1       7.825 -12.097 -41.425  1.00  0.00     0.131 A 
ATOM     10  C   UNL     1       7.717 -10.721 -41.566  1.00  0.00     0.081 A 
ATOM     11  N   UNL     1       7.631 -12.984 -42.443  1.00  0.00    -0.251 NA
ATOM     12  C   UNL     1       7.327 -12.457 -43.646  1.00  0.00     0.116 A 
ATOM     13  C   UNL     1       7.202 -11.098 -43.885  1.00  0.00     0.067 A 
BRANCH   9  14
ATOM     14  C   UNL     1       8.196 -12.682 -40.097  1.00  0.00     0.269 C 
ATOM     15  N   UNL     1       7.140 -12.811 -39.219  1.00  0.00    -0.354 N 
ATOM     16  O   UNL     1       9.345 -13.025 -39.847  1.00  0.00    -0.268 OA
ATOM     17  C   UNL     1       7.267 -13.490 -37.958  1.00  0.00     0.143 C 
ATOM     18  H   UNL     1       6.222 -12.591 -39.594  1.00  0.00     0.163 HD
ENDBRANCH   9  14
ENDBRANCH   7   8
ENDBRANCH   1   7
BRANCH   4  19
ATOM     19  N   UNL     1       2.442  -6.470 -44.210  1.00  0.00    -0.308 N 
ATOM     20  C   UNL     1       1.218  -7.094 -44.414  1.00  0.00     0.323 C 
ATOM     21  O   UNL     1       1.034  -8.304 -44.378  1.00  0.00    -0.248 OA
ATOM     22  N   UNL     1       0.226  -6.152 -44.659  1.00  0.00    -0.308 N 
ATOM     23  H   UNL     1       2.444  -5.464 -44.213  1.00  0.00     0.171 HD
ATOM     24  H   UNL     1       0.521  -5.188 -44.694  1.00  0.00     0.171 HD
BRANCH  22  25
ATOM     25  C   UNL     1      -1.147  -6.386 -44.889  1.00  0.00     0.043 A 
ATOM     26  C   UNL     1      -1.924  -5.671 -45.797  1.00  0.00     0.028 A 
ATOM     27  C   UNL     1      -1.752  -7.411 -44.150  1.00  0.00     0.040 A 
ATOM     28  C   UNL     1      -3.278  -5.974 -45.964  1.00  0.00     0.023 A 
ATOM     29  C   UNL     1      -3.118  -7.733 -44.310  1.00  0.00     0.076 A 
ATOM     30  C   UNL     1      -3.873  -6.999 -45.228  1.00  0.00     0.053 A 
ATOM     31  Cl  UNL     1      -5.543  -7.320 -45.511  1.00  0.00    -0.084 Cl
BRANCH  29  32
ATOM     32  C   UNL     1      -3.719  -8.865 -43.522  1.00  0.00     0.417 C 
ATOM     33  F   UNL     1      -4.369  -9.772 -44.312  1.00  0.00    -0.166 F 
ATOM     34  F   UNL     1      -2.804  -9.593 -42.825  1.00  0.00    -0.166 F 
ATOM     35  F   UNL     1      -4.652  -8.443 -42.622  1.00  0.00    -0.166 F 
ENDBRANCH  29  32
ENDBRANCH  22  25
ENDBRANCH   4  19
TORSDOF 6
ENDMDL
MODEL 9
REMARK VINA RESULT:    -8.981      3.607      5.005
REMARK INTER + INTRA:         -12.355
REMARK INTER:                 -11.938
REMARK INTRA:                  -0.417
REMARK UNBOUND:                -0.223
REMARK SMILES CNC(=O)c1cc(Oc2ccc(NC(=O)Nc3ccc(Cl)c(C(F)(F)F)c3)cc2)ccn1
REMARK SMILES IDX 9 1 10 2 11 3 12 4 28 5 29 6 8 7 7 8 5 9 6 10 32 11 31 12
REMARK SMILES IDX 30 13 3 14 2 15 4 16 1 17 13 19 14 20 15 21 16 22 17 25
REMARK SMILES IDX 18 26 27 27 19 28 22 29 20 30 21 31 23 32 24 33 25 34 26 35
REMARK H PARENT 2 18 13 23 16 24
ROOT
ATOM      1  C   UNL     1       1.186 -10.493 -44.987  1.00  0.00     0.127 A 
ATOM      2  C   UNL     1       0.749 -10.641 -43.673  1.00  0.00     0.049 A 
ATOM      3  C   UNL     1       0.807 -11.898 -43.067  1.00  0.00     0.030 A 
ATOM      4  C   UNL     1       1.289 -13.013 -43.769  1.00  0.00     0.043 A 
ATOM      5  C   UNL     1       1.694 -12.849 -45.098  1.00  0.00     0.030 A 
ATOM      6  C   UNL     1       1.636 -11.593 -45.709  1.00  0.00     0.049 A 
ENDROOT
BRANCH   1   7
ATOM      7  O   UNL     1       1.115  -9.273 -45.609  1.00  0.00    -0.457 OA
BRANCH   7   8
ATOM      8  C   UNL     1       1.760  -8.207 -45.019  1.00  0.00     0.131 A 
ATOM      9  C   UNL     1       3.752  -7.440 -43.965  1.00  0.00     0.131 A 
ATOM     10  C   UNL     1       3.056  -8.466 -44.585  1.00  0.00     0.081 A 
ATOM     11  N   UNL     1       3.243  -6.192 -43.754  1.00  0.00    -0.251 NA
ATOM     12  C   UNL     1       1.981  -5.982 -44.179  1.00  0.00     0.116 A 
ATOM     13  C   UNL     1       1.206  -6.945 -44.805  1.00  0.00     0.067 A 
BRANCH   9  14
ATOM     14  C   UNL     1       5.142  -7.682 -43.460  1.00  0.00     0.269 C 
ATOM     15  N   UNL     1       5.773  -8.766 -44.035  1.00  0.00    -0.354 N 
ATOM     16  O   UNL     1       5.655  -6.952 -42.621  1.00  0.00    -0.268 OA
ATOM     17  C   UNL     1       7.159  -9.065 -43.795  1.00  0.00     0.143 C 
ATOM     18  H   UNL     1       5.274  -9.216 -44.797  1.00  0.00     0.163 HD
ENDBRANCH   9  14
ENDBRANCH   7   8
ENDBRANCH   1   7
BRANCH   4  19
ATOM     19  N   UNL     1       1.325 -14.242 -43.076  1.00  0.00    -0.308 N 
ATOM     20  C   UNL     1       0.403 -15.280 -43.142  1.00  0.00     0.323 C 
ATOM     21  O   UNL     1      -0.602 -15.280 -43.842  1.00  0.00    -0.248 OA
ATOM     22  N   UNL     1       0.784 -16.323 -42.307  1.00  0.00    -0.308 N 
ATOM     23  H   UNL     1       2.137 -14.394 -42.501  1.00  0.00     0.171 HD
ATOM     24  H   UNL     1       1.618 -16.179 -41.760  1.00  0.00     0.171 HD
BRANCH  22  25
ATOM     25  C   UNL     1       0.125 -17.557 -42.116  1.00  0.00     0.043 A 
ATOM     26  C   UNL     1       0.763 -18.737 -41.738  1.00  0.00     0.028 A 
ATOM     27  C   UNL     1      -1.261 -17.580 -42.319  1.00  0.00     0.040 A 
ATOM     28  C   UNL     1       0.031 -19.915 -41.567  1.00  0.00     0.023 A 
ATOM     29  C   UNL     1      -2.016 -18.761 -42.145  1.00  0.00     0.076 A 
ATOM     30  C   UNL     1      -1.350 -19.929 -41.766  1.00  0.00     0.053 A 
ATOM     31  Cl  UNL     1      -2.178 -21.420 -41.513  1.00  0.00    -0.084 Cl
BRANCH  29  32
ATOM     32  C   UNL     1      -3.508 -18.732 -42.339  1.00  0.00     0.417 C 
ATOM     33  F   UNL     1      -4.195 -18.945 -41.177  1.00  0.00    -0.166 F 
ATOM     34  F   UNL     1      -3.975 -17.546 -42.816  1.00  0.00    -0.166 F 
ATOM     35  F   UNL     1      -3.946 -19.698 -43.195  1.00  0.00    -0.166 F 
ENDBRANCH  29  32
ENDBRANCH  22  25
ENDBRANCH   4  19
TORSDOF 6
ENDMDL
MODEL 10
REMARK VINA RESULT:    -8.966      3.189      3.988
REMARK INTER + INTRA:         -12.334
REMARK INTER:                 -11.709
REMARK INTRA:                  -0.624
REMARK UNBOUND:                -0.223
REMARK SMILES CNC(=O)c1cc(Oc2ccc(NC(=O)Nc3ccc(Cl)c(C(F)(F)F)c3)cc2)ccn1
REMARK SMILES IDX 9 1 10 2 11 3 12 4 28 5 29 6 8 7 7 8 5 9 6 10 32 11 31 12
REMARK SMILES IDX 30 13 3 14 2 15 4 16 1 17 13 19 14 20 15 21 16 22 17 25
REMARK SMILES IDX 18 26 27 27 19 28 22 29 20 30 21 31 23 32 24 33 25 34 26 35
REMARK H PARENT 2 18 13 23 16 24
ROOT
ATOM      1  C   UNL     1       1.591 -12.014 -45.219  1.00  0.00     0.127 A 
ATOM      2  C   UNL     1       0.994 -11.869 -43.969  1.00  0.00     0.049 A 
ATOM      3  C   UNL     1       0.755 -13.001 -43.187  1.00  0.00     0.030 A 
ATOM      4  C   UNL     1       1.098 -14.281 -43.651  1.00  0.00     0.043 A 
ATOM      5  C   UNL     1       1.668 -14.407 -44.922  1.00  0.00     0.030 A 
ATOM      6  C   UNL     1       1.908 -13.277 -45.709  1.00  0.00     0.049 A 
ENDROOT
BRANCH   1   7
ATOM      7  O   UNL     1       1.813 -10.918 -46.013  1.00  0.00    -0.457 OA
BRANCH   7   8
ATOM      8  C   UNL     1       1.969  -9.694 -45.398  1.00  0.00     0.131 A 
ATOM      9  C   UNL     1       0.984  -7.577 -44.931  1.00  0.00     0.131 A 
ATOM     10  C   UNL     1       0.882  -8.832 -45.511  1.00  0.00     0.081 A 
ATOM     11  N   UNL     1       2.086  -7.136 -44.257  1.00  0.00    -0.251 NA
ATOM     12  C   UNL     1       3.121  -7.995 -44.177  1.00  0.00     0.116 A 
ATOM     13  C   UNL     1       3.115  -9.267 -44.727  1.00  0.00     0.067 A 
BRANCH   9  14
ATOM     14  C   UNL     1      -0.153  -6.608 -45.049  1.00  0.00     0.269 C 
ATOM     15  N   UNL     1      -1.192  -7.048 -45.841  1.00  0.00    -0.354 N 
ATOM     16  O   UNL     1      -0.139  -5.531 -44.465  1.00  0.00    -0.268 OA
ATOM     17  C   UNL     1      -2.433  -6.329 -45.950  1.00  0.00     0.143 C 
ATOM     18  H   UNL     1      -1.122  -8.006 -46.173  1.00  0.00     0.163 HD
ENDBRANCH   9  14
ENDBRANCH   7   8
ENDBRANCH   1   7
BRANCH   4  19
ATOM     19  N   UNL     1       0.832 -15.368 -42.790  1.00  0.00    -0.308 N 
ATOM     20  C   UNL     1       0.067 -16.495 -43.061  1.00  0.00     0.323 C 
ATOM     21  O   UNL     1      -0.499 -16.719 -44.123  1.00  0.00    -0.248 OA
ATOM     22  N   UNL     1       0.037 -17.339 -41.957  1.00  0.00    -0.308 N 
ATOM     23  H   UNL     1       1.288 -15.334 -41.893  1.00  0.00     0.171 HD
ATOM     24  H   UNL     1       0.520 -17.018 -41.132  1.00  0.00     0.171 HD
BRANCH  22  25
ATOM     25  C   UNL     1      -0.611 -18.589 -41.846  1.00  0.00     0.043 A 
ATOM     26  C   UNL     1       0.052 -19.807 -41.711  1.00  0.00     0.028 A 
ATOM     27  C   UNL     1      -2.012 -18.587 -41.872  1.00  0.00     0.040 A 
ATOM     28  C   UNL     1      -0.671 -20.999 -41.602  1.00  0.00     0.023 A 
ATOM     29  C   UNL     1      -2.756 -19.782 -41.759  1.00  0.00     0.076 A 
ATOM     30  C   UNL     1      -2.066 -20.989 -41.623  1.00  0.00     0.053 A 
ATOM     31  Cl  UNL     1      -2.877 -22.501 -41.463  1.00  0.00    -0.084 Cl
BRANCH  29  32
ATOM     32  C   UNL     1      -4.261 -19.731 -41.755  1.00  0.00     0.417 C 
ATOM     33  F   UNL     1      -4.796 -20.047 -40.538  1.00  0.00    -0.166 F 
ATOM     34  F   UNL     1      -4.766 -18.504 -42.058  1.00  0.00    -0.166 F 
ATOM     35  F   UNL     1      -4.819 -20.612 -42.631  1.00  0.00    -0.166 F 
ENDBRANCH  29  32
ENDBRANCH  22  25
ENDBRANCH   4  19
TORSDOF 6
ENDMDL
MODEL 11
REMARK VINA RESULT:    -8.894      8.025      9.694
REMARK INTER + INTRA:         -12.237
REMARK INTER:                 -11.965
REMARK INTRA:                  -0.272
REMARK UNBOUND:                -0.223
REMARK SMILES CNC(=O)c1cc(Oc2ccc(NC(=O)Nc3ccc(Cl)c(C(F)(F)F)c3)cc2)ccn1
REMARK SMILES IDX 9 1 10 2 11 3 12 4 28 5 29 6 8 7 7 8 5 9 6 10 32 11 31 12
REMARK SMILES IDX 30 13 3 14 2 15 4 16 1 17 13 19 14 20 15 21 16 22 17 25
REMARK SMILES IDX 18 26 27 27 19 28 22 29 20 30 21 31 23 32 24 33 25 34 26 35
REMARK H PARENT 2 18 13 23 16 24
ROOT
ATOM      1  C   UNL     1       6.107 -19.034 -41.692  1.00  0.00     0.127 A 
ATOM      2  C   UNL     1       5.776 -20.020 -42.618  1.00  0.00     0.049 A 
ATOM      3  C   UNL     1       4.513 -20.614 -42.568  1.00  0.00     0.030 A 
ATOM      4  C   UNL     1       3.580 -20.237 -41.590  1.00  0.00     0.043 A 
ATOM      5  C   UNL     1       3.943 -19.267 -40.651  1.00  0.00     0.030 A 
ATOM      6  C   UNL     1       5.207 -18.670 -40.696  1.00  0.00     0.049 A 
ENDROOT
BRANCH   1   7
ATOM      7  O   UNL     1       7.350 -18.455 -41.709  1.00  0.00    -0.457 OA
BRANCH   7   8
ATOM      8  C   UNL     1       7.532 -17.334 -42.491  1.00  0.00     0.131 A 
ATOM      9  C   UNL     1       7.604 -14.955 -42.549  1.00  0.00     0.131 A 
ATOM     10  C   UNL     1       7.449 -16.122 -41.814  1.00  0.00     0.081 A 
ATOM     11  N   UNL     1       7.832 -14.926 -43.893  1.00  0.00    -0.251 NA
ATOM     12  C   UNL     1       7.896 -16.121 -44.515  1.00  0.00     0.116 A 
ATOM     13  C   UNL     1       7.751 -17.338 -43.868  1.00  0.00     0.067 A 
BRANCH   9  14
ATOM     14  C   UNL     1       7.498 -13.626 -41.865  1.00  0.00     0.269 C 
ATOM     15  N   UNL     1       7.305 -13.703 -40.502  1.00  0.00    -0.354 N 
ATOM     16  O   UNL     1       7.597 -12.576 -42.489  1.00  0.00    -0.268 OA
ATOM     17  C   UNL     1       7.334 -12.542 -39.654  1.00  0.00     0.143 C 
ATOM     18  H   UNL     1       7.354 -14.635 -40.099  1.00  0.00     0.163 HD
ENDBRANCH   9  14
ENDBRANCH   7   8
ENDBRANCH   1   7
BRANCH   4  19
ATOM     19  N   UNL     1       2.323 -20.879 -41.621  1.00  0.00    -0.308 N 
ATOM     20  C   UNL     1       1.067 -20.286 -41.587  1.00  0.00     0.323 C 
ATOM     21  O   UNL     1       0.864 -19.080 -41.534  1.00  0.00    -0.248 OA
ATOM     22  N   UNL     1       0.071 -21.254 -41.629  1.00  0.00    -0.308 N 
ATOM     23  H   UNL     1       2.349 -21.880 -41.720  1.00  0.00     0.171 HD
ATOM     24  H   UNL     1       0.378 -22.214 -41.639  1.00  0.00     0.171 HD
BRANCH  22  25
ATOM     25  C   UNL     1      -1.326 -21.051 -41.639  1.00  0.00     0.043 A 
ATOM     26  C   UNL     1      -2.260 -21.999 -41.224  1.00  0.00     0.028 A 
ATOM     27  C   UNL     1      -1.789 -19.810 -42.094  1.00  0.00     0.040 A 
ATOM     28  C   UNL     1      -3.627 -21.711 -41.262  1.00  0.00     0.023 A 
ATOM     29  C   UNL     1      -3.167 -19.502 -42.135  1.00  0.00     0.076 A 
ATOM     30  C   UNL     1      -4.080 -20.471 -41.712  1.00  0.00     0.053 A 
ATOM     31  Cl  UNL     1      -5.781 -20.193 -41.707  1.00  0.00    -0.084 Cl
BRANCH  29  32
ATOM     32  C   UNL     1      -3.619 -18.143 -42.597  1.00  0.00     0.417 C 
ATOM     33  F   UNL     1      -4.548 -17.584 -41.766  1.00  0.00    -0.166 F 
ATOM     34  F   UNL     1      -2.613 -17.229 -42.671  1.00  0.00    -0.166 F 
ATOM     35  F   UNL     1      -4.210 -18.175 -43.825  1.00  0.00    -0.166 F 
ENDBRANCH  29  32
ENDBRANCH  22  25
ENDBRANCH   4  19
TORSDOF 6
ENDMDL
MODEL 12
REMARK VINA RESULT:    -8.854      4.521      6.151
REMARK INTER + INTRA:         -12.183
REMARK INTER:                 -11.420
REMARK INTRA:                  -0.763
REMARK UNBOUND:                -0.223
REMARK SMILES CNC(=O)c1cc(Oc2ccc(NC(=O)Nc3ccc(Cl)c(C(F)(F)F)c3)cc2)ccn1
REMARK SMILES IDX 9 1 10 2 11 3 12 4 28 5 29 6 8 7 7 8 5 9 6 10 32 11 31 12
REMARK SMILES IDX 30 13 3 14 2 15 4 16 1 17 13 19 14 20 15 21 16 22 17 25
REMARK SMILES IDX 18 26 27 27 19 28 22 29 20 30 21 31 23 32 24 33 25 34 26 35
REMARK H PARENT 2 18 13 23 16 24
ROOT
ATOM      1  C   UNL     1       1.879 -12.179 -45.258  1.00  0.00     0.127 A 
ATOM      2  C   UNL     1       1.243 -12.042 -44.027  1.00  0.00     0.049 A 
ATOM      3  C   UNL     1       0.999 -13.176 -43.250  1.00  0.00     0.030 A 
ATOM      4  C   UNL     1       1.377 -14.451 -43.700  1.00  0.00     0.043 A 
ATOM      5  C   UNL     1       1.986 -14.570 -44.954  1.00  0.00     0.030 A 
ATOM      6  C   UNL     1       2.231 -13.437 -45.736  1.00  0.00     0.049 A 
ENDROOT
BRANCH   1   7
ATOM      7  O   UNL     1       2.106 -11.081 -46.048  1.00  0.00    -0.457 OA
BRANCH   7   8
ATOM      8  C   UNL     1       3.063 -10.177 -45.639  1.00  0.00     0.131 A 
ATOM      9  C   UNL     1       5.373  -9.809 -45.195  1.00  0.00     0.131 A 
ATOM     10  C   UNL     1       4.366 -10.664 -45.616  1.00  0.00     0.081 A 
ATOM     11  N   UNL     1       5.164  -8.520 -44.803  1.00  0.00    -0.251 NA
ATOM     12  C   UNL     1       3.888  -8.087 -44.830  1.00  0.00     0.116 A 
ATOM     13  C   UNL     1       2.815  -8.867 -45.231  1.00  0.00     0.067 A 
BRANCH   9  14
ATOM     14  C   UNL     1       6.788 -10.300 -45.131  1.00  0.00     0.269 C 
ATOM     15  N   UNL     1       6.909 -11.644 -44.847  1.00  0.00    -0.354 N 
ATOM     16  O   UNL     1       7.735  -9.551 -45.335  1.00  0.00    -0.268 OA
ATOM     17  C   UNL     1       8.172 -12.330 -44.896  1.00  0.00     0.143 C 
ATOM     18  H   UNL     1       6.040 -12.170 -44.811  1.00  0.00     0.163 HD
ENDBRANCH   9  14
ENDBRANCH   7   8
ENDBRANCH   1   7
BRANCH   4  19
ATOM     19  N   UNL     1       1.103 -15.541 -42.846  1.00  0.00    -0.308 N 
ATOM     20  C   UNL     1       0.215 -16.587 -43.064  1.00  0.00     0.323 C 
ATOM     21  O   UNL     1      -0.475 -16.722 -44.066  1.00  0.00    -0.248 OA
ATOM     22  N   UNL     1       0.223 -17.464 -41.986  1.00  0.00    -0.308 N 
ATOM     23  H   UNL     1       1.650 -15.579 -42.001  1.00  0.00     0.171 HD
ATOM     24  H   UNL     1       0.815 -17.216 -41.209  1.00  0.00     0.171 HD
BRANCH  22  25
ATOM     25  C   UNL     1      -0.521 -18.655 -41.840  1.00  0.00     0.043 A 
ATOM     26  C   UNL     1       0.044 -19.913 -41.638  1.00  0.00     0.028 A 
ATOM     27  C   UNL     1      -1.916 -18.549 -41.902  1.00  0.00     0.040 A 
ATOM     28  C   UNL     1      -0.770 -21.041 -41.500  1.00  0.00     0.023 A 
ATOM     29  C   UNL     1      -2.753 -19.679 -41.760  1.00  0.00     0.076 A 
ATOM     30  C   UNL     1      -2.160 -20.927 -41.557  1.00  0.00     0.053 A 
ATOM     31  Cl  UNL     1      -3.088 -22.366 -41.356  1.00  0.00    -0.084 Cl
BRANCH  29  32
ATOM     32  C   UNL     1      -4.248 -19.514 -41.796  1.00  0.00     0.417 C 
ATOM     33  F   UNL     1      -4.819 -19.594 -40.557  1.00  0.00    -0.166 F 
ATOM     34  F   UNL     1      -4.654 -18.315 -42.298  1.00  0.00    -0.166 F 
ATOM     35  F   UNL     1      -4.865 -20.478 -42.537  1.00  0.00    -0.166 F 
ENDBRANCH  29  32
ENDBRANCH  22  25
ENDBRANCH   4  19
TORSDOF 6
ENDMDL
MODEL 13
REMARK VINA RESULT:    -8.848      7.182     10.741
REMARK INTER + INTRA:         -12.175
REMARK INTER:                 -11.460
REMARK INTRA:                  -0.715
REMARK UNBOUND:                -0.223
REMARK SMILES CNC(=O)c1cc(Oc2ccc(NC(=O)Nc3ccc(Cl)c(C(F)(F)F)c3)cc2)ccn1
REMARK SMILES IDX 9 1 10 2 11 3 12 4 28 5 29 6 8 7 7 8 5 9 6 10 32 11 31 12
REMARK SMILES IDX 30 13 3 14 2 15 4 16 1 17 13 19 14 20 15 21 16 22 17 25
REMARK SMILES IDX 18 26 27 27 19 28 22 29 20 30 21 31 23 32 24 33 25 34 26 35
REMARK H PARENT 2 18 13 23 16 24
ROOT
ATOM      1  C   UNL     1       6.067 -11.943 -45.019  1.00  0.00     0.127 A 
ATOM      2  C   UNL     1       5.703 -10.623 -45.270  1.00  0.00     0.049 A 
ATOM      3  C   UNL     1       4.355 -10.304 -45.448  1.00  0.00     0.030 A 
ATOM      4  C   UNL     1       3.367 -11.300 -45.389  1.00  0.00     0.043 A 
ATOM      5  C   UNL     1       3.758 -12.625 -45.168  1.00  0.00     0.030 A 
ATOM      6  C   UNL     1       5.106 -12.948 -44.990  1.00  0.00     0.049 A 
ENDROOT
BRANCH   1   7
ATOM      7  O   UNL     1       7.387 -12.281 -44.866  1.00  0.00    -0.457 OA
BRANCH   7   8
ATOM      8  C   UNL     1       7.699 -13.285 -43.974  1.00  0.00     0.131 A 
ATOM      9  C   UNL     1       8.179 -13.836 -41.708  1.00  0.00     0.131 A 
ATOM     10  C   UNL     1       7.845 -12.877 -42.652  1.00  0.00     0.081 A 
ATOM     11  N   UNL     1       8.373 -15.155 -41.997  1.00  0.00    -0.251 NA
ATOM     12  C   UNL     1       8.233 -15.510 -43.290  1.00  0.00     0.116 A 
ATOM     13  C   UNL     1       7.905 -14.624 -44.304  1.00  0.00     0.067 A 
BRANCH   9  14
ATOM     14  C   UNL     1       8.370 -13.437 -40.276  1.00  0.00     0.269 C 
ATOM     15  N   UNL     1       7.241 -13.573 -39.495  1.00  0.00    -0.354 N 
ATOM     16  O   UNL     1       9.453 -13.045 -39.859  1.00  0.00    -0.268 OA
ATOM     17  C   UNL     1       7.267 -13.388 -38.069  1.00  0.00     0.143 C 
ATOM     18  H   UNL     1       6.443 -14.014 -39.942  1.00  0.00     0.163 HD
ENDBRANCH   9  14
ENDBRANCH   7   8
ENDBRANCH   1   7
BRANCH   4  19
ATOM     19  N   UNL     1       2.029 -10.888 -45.568  1.00  0.00    -0.308 N 
ATOM     20  C   UNL     1       1.284 -10.049 -44.749  1.00  0.00     0.323 C 
ATOM     21  O   UNL     1       1.698  -9.522 -43.724  1.00  0.00    -0.248 OA
ATOM     22  N   UNL     1       0.001  -9.885 -45.258  1.00  0.00    -0.308 N 
ATOM     23  H   UNL     1       1.583 -11.211 -46.411  1.00  0.00     0.171 HD
ATOM     24  H   UNL     1      -0.220 -10.404 -46.094  1.00  0.00     0.171 HD
BRANCH  22  25
ATOM     25  C   UNL     1      -1.041  -9.093 -44.729  1.00  0.00     0.043 A 
ATOM     26  C   UNL     1      -0.979  -7.708 -44.587  1.00  0.00     0.028 A 
ATOM     27  C   UNL     1      -2.207  -9.756 -44.327  1.00  0.00     0.040 A 
ATOM     28  C   UNL     1      -2.062  -7.001 -44.057  1.00  0.00     0.023 A 
ATOM     29  C   UNL     1      -3.312  -9.056 -43.793  1.00  0.00     0.076 A 
ATOM     30  C   UNL     1      -3.223  -7.668 -43.663  1.00  0.00     0.053 A 
ATOM     31  Cl  UNL     1      -4.517  -6.717 -43.038  1.00  0.00    -0.084 Cl
BRANCH  29  32
ATOM     32  C   UNL     1      -4.559  -9.805 -43.407  1.00  0.00     0.417 C 
ATOM     33  F   UNL     1      -4.481 -11.140 -43.685  1.00  0.00    -0.166 F 
ATOM     34  F   UNL     1      -4.850  -9.734 -42.079  1.00  0.00    -0.166 F 
ATOM     35  F   UNL     1      -5.663  -9.365 -44.074  1.00  0.00    -0.166 F 
ENDBRANCH  29  32
ENDBRANCH  22  25
ENDBRANCH   4  19
TORSDOF 6
ENDMDL
MODEL 14
REMARK VINA RESULT:    -8.775      3.811      5.925
REMARK INTER + INTRA:         -12.077
REMARK INTER:                 -11.463
REMARK INTRA:                  -0.613
REMARK UNBOUND:                -0.223
REMARK SMILES CNC(=O)c1cc(Oc2ccc(NC(=O)Nc3ccc(Cl)c(C(F)(F)F)c3)cc2)ccn1
REMARK SMILES IDX 9 1 10 2 11 3 12 4 28 5 29 6 8 7 7 8 5 9 6 10 32 11 31 12
REMARK SMILES IDX 30 13 3 14 2 15 4 16 1 17 13 19 14 20 15 21 16 22 17 25
REMARK SMILES IDX 18 26 27 27 19 28 22 29 20 30 21 31 23 32 24 33 25 34 26 35
REMARK H PARENT 2 18 13 23 16 24
ROOT
ATOM      1  C   UNL     1       2.271 -11.106 -45.315  1.00  0.00     0.127 A 
ATOM      2  C   UNL     1       1.736 -10.949 -44.039  1.00  0.00     0.049 A 
ATOM      3  C   UNL     1       0.988 -11.984 -43.475  1.00  0.00     0.030 A 
ATOM      4  C   UNL     1       0.759 -13.174 -44.183  1.00  0.00     0.043 A 
ATOM      5  C   UNL     1       1.279 -13.299 -45.476  1.00  0.00     0.030 A 
ATOM      6  C   UNL     1       2.027 -12.264 -46.045  1.00  0.00     0.049 A 
ENDROOT
BRANCH   1   7
ATOM      7  O   UNL     1       2.988 -10.092 -45.896  1.00  0.00    -0.457 OA
BRANCH   7   8
ATOM      8  C   UNL     1       4.225  -9.789 -45.369  1.00  0.00     0.131 A 
ATOM      9  C   UNL     1       6.396 -10.604 -44.829  1.00  0.00     0.131 A 
ATOM     10  C   UNL     1       5.139 -10.838 -45.365  1.00  0.00     0.081 A 
ATOM     11  N   UNL     1       6.791  -9.407 -44.307  1.00  0.00    -0.251 NA
ATOM     12  C   UNL     1       5.875  -8.418 -44.320  1.00  0.00     0.116 A 
ATOM     13  C   UNL     1       4.594  -8.557 -44.829  1.00  0.00     0.067 A 
BRANCH   9  14
ATOM     14  C   UNL     1       7.404 -11.712 -44.782  1.00  0.00     0.269 C 
ATOM     15  N   UNL     1       8.086 -11.806 -43.587  1.00  0.00    -0.354 N 
ATOM     16  O   UNL     1       7.572 -12.466 -45.733  1.00  0.00    -0.268 OA
ATOM     17  C   UNL     1       8.979 -12.896 -43.295  1.00  0.00     0.143 C 
ATOM     18  H   UNL     1       7.769 -11.188 -42.845  1.00  0.00     0.163 HD
ENDBRANCH   9  14
ENDBRANCH   7   8
ENDBRANCH   1   7
BRANCH   4  19
ATOM     19  N   UNL     1       0.003 -14.173 -43.533  1.00  0.00    -0.308 N 
ATOM     20  C   UNL     1       0.265 -15.537 -43.484  1.00  0.00     0.323 C 
ATOM     21  O   UNL     1       1.226 -16.084 -44.008  1.00  0.00    -0.248 OA
ATOM     22  N   UNL     1      -0.715 -16.194 -42.751  1.00  0.00    -0.308 N 
ATOM     23  H   UNL     1      -0.794 -13.846 -43.013  1.00  0.00     0.171 HD
ATOM     24  H   UNL     1      -1.471 -15.626 -42.401  1.00  0.00     0.171 HD
BRANCH  22  25
ATOM     25  C   UNL     1      -0.790 -17.573 -42.454  1.00  0.00     0.043 A 
ATOM     26  C   UNL     1      -1.930 -18.353 -42.631  1.00  0.00     0.028 A 
ATOM     27  C   UNL     1       0.369 -18.182 -41.954  1.00  0.00     0.040 A 
ATOM     28  C   UNL     1      -1.913 -19.715 -42.315  1.00  0.00     0.023 A 
ATOM     29  C   UNL     1       0.403 -19.557 -41.634  1.00  0.00     0.076 A 
ATOM     30  C   UNL     1      -0.755 -20.316 -41.822  1.00  0.00     0.053 A 
ATOM     31  Cl  UNL     1      -0.815 -22.004 -41.478  1.00  0.00    -0.084 Cl
BRANCH  29  32
ATOM     32  C   UNL     1       1.679 -20.179 -41.133  1.00  0.00     0.417 C 
ATOM     33  F   UNL     1       2.671 -19.260 -40.934  1.00  0.00    -0.166 F 
ATOM     34  F   UNL     1       1.543 -20.820 -39.941  1.00  0.00    -0.166 F 
ATOM     35  F   UNL     1       2.201 -21.085 -42.008  1.00  0.00    -0.166 F 
ENDBRANCH  29  32
ENDBRANCH  22  25
ENDBRANCH   4  19
TORSDOF 6
ENDMDL
MODEL 15
REMARK VINA RESULT:    -8.736      6.725     10.720
REMARK INTER + INTRA:         -12.024
REMARK INTER:                 -10.927
REMARK INTRA:                  -1.097
REMARK UNBOUND:                -0.223
REMARK SMILES CNC(=O)c1cc(Oc2ccc(NC(=O)Nc3ccc(Cl)c(C(F)(F)F)c3)cc2)ccn1
REMARK SMILES IDX 9 1 10 2 11 3 12 4 28 5 29 6 8 7 7 8 5 9 6 10 32 11 31 12
REMARK SMILES IDX 30 13 3 14 2 15 4 16 1 17 13 19 14 20 15 21 16 22 17 25
REMARK SMILES IDX 18 26 27 27 19 28 22 29 20 30 21 31 23 32 24 33 25 34 26 35
REMARK H PARENT 2 18 13 23 16 24
ROOT
ATOM      1  C   UNL     1       2.332 -19.784 -40.587  1.00  0.00     0.127 A 
ATOM      2  C   UNL     1       3.065 -18.776 -39.966  1.00  0.00     0.049 A 
ATOM      3  C   UNL     1       4.400 -18.576 -40.326  1.00  0.00     0.030 A 
ATOM      4  C   UNL     1       5.012 -19.385 -41.296  1.00  0.00     0.043 A 
ATOM      5  C   UNL     1       4.267 -20.412 -41.884  1.00  0.00     0.030 A 
ATOM      6  C   UNL     1       2.931 -20.617 -41.526  1.00  0.00     0.049 A 
ENDROOT
BRANCH   1   7
ATOM      7  O   UNL     1       1.028 -20.013 -40.231  1.00  0.00    -0.457 OA
BRANCH   7   8
ATOM      8  C   UNL     1       0.045 -19.728 -41.155  1.00  0.00     0.131 A 
ATOM      9  C   UNL     1      -0.882 -18.090 -42.613  1.00  0.00     0.131 A 
ATOM     10  C   UNL     1       0.092 -18.446 -41.693  1.00  0.00     0.081 A 
ATOM     11  N   UNL     1      -1.883 -18.921 -43.023  1.00  0.00    -0.251 NA
ATOM     12  C   UNL     1      -1.902 -20.151 -42.472  1.00  0.00     0.116 A 
ATOM     13  C   UNL     1      -0.975 -20.596 -41.543  1.00  0.00     0.067 A 
BRANCH   9  14
ATOM     14  C   UNL     1      -0.883 -16.711 -43.200  1.00  0.00     0.269 C 
ATOM     15  N   UNL     1       0.201 -15.940 -42.838  1.00  0.00    -0.354 N 
ATOM     16  O   UNL     1      -1.777 -16.334 -43.948  1.00  0.00    -0.268 OA
ATOM     17  C   UNL     1       0.456 -14.649 -43.419  1.00  0.00     0.143 C 
ATOM     18  H   UNL     1       0.923 -16.414 -42.302  1.00  0.00     0.163 HD
ENDBRANCH   9  14
ENDBRANCH   7   8
ENDBRANCH   1   7
BRANCH   4  19
ATOM     19  N   UNL     1       6.360 -19.105 -41.607  1.00  0.00    -0.308 N 
ATOM     20  C   UNL     1       6.846 -18.116 -42.453  1.00  0.00     0.323 C 
ATOM     21  O   UNL     1       6.152 -17.313 -43.063  1.00  0.00    -0.248 OA
ATOM     22  N   UNL     1       8.234 -18.161 -42.507  1.00  0.00    -0.308 N 
ATOM     23  H   UNL     1       7.043 -19.665 -41.125  1.00  0.00     0.171 HD
ATOM     24  H   UNL     1       8.680 -18.895 -41.980  1.00  0.00     0.171 HD
BRANCH  22  25
ATOM     25  C   UNL     1       9.096 -17.309 -43.232  1.00  0.00     0.043 A 
ATOM     26  C   UNL     1       9.378 -17.449 -44.589  1.00  0.00     0.028 A 
ATOM     27  C   UNL     1       9.697 -16.258 -42.527  1.00  0.00     0.040 A 
ATOM     28  C   UNL     1      10.241 -16.556 -45.229  1.00  0.00     0.023 A 
ATOM     29  C   UNL     1      10.568 -15.344 -43.160  1.00  0.00     0.076 A 
ATOM     30  C   UNL     1      10.832 -15.508 -44.522  1.00  0.00     0.053 A 
ATOM     31  Cl  UNL     1      11.868 -14.440 -45.394  1.00  0.00    -0.084 Cl
BRANCH  29  32
ATOM     32  C   UNL     1      11.163 -14.207 -42.374  1.00  0.00     0.417 C 
ATOM     33  F   UNL     1      10.830 -14.250 -41.049  1.00  0.00    -0.166 F 
ATOM     34  F   UNL     1      12.524 -14.180 -42.397  1.00  0.00    -0.166 F 
ATOM     35  F   UNL     1      10.740 -12.988 -42.810  1.00  0.00    -0.166 F 
ENDBRANCH  29  32
ENDBRANCH  22  25
ENDBRANCH   4  19
TORSDOF 6
ENDMDL
MODEL 16
REMARK VINA RESULT:    -8.732      7.154     10.614
REMARK INTER + INTRA:         -12.018
REMARK INTER:                 -11.055
REMARK INTRA:                  -0.963
REMARK UNBOUND:                -0.223
REMARK SMILES CNC(=O)c1cc(Oc2ccc(NC(=O)Nc3ccc(Cl)c(C(F)(F)F)c3)cc2)ccn1
REMARK SMILES IDX 9 1 10 2 11 3 12 4 28 5 29 6 8 7 7 8 5 9 6 10 32 11 31 12
REMARK SMILES IDX 30 13 3 14 2 15 4 16 1 17 13 19 14 20 15 21 16 22 17 25
REMARK SMILES IDX 18 26 27 27 19 28 22 29 20 30 21 31 23 32 24 33 25 34 26 35
REMARK H PARENT 2 18 13 23 16 24
ROOT
ATOM      1  C   UNL     1       4.985 -14.499 -44.307  1.00  0.00     0.127 A 
ATOM      2  C   UNL     1       4.934 -13.458 -45.231  1.00  0.00     0.049 A 
ATOM      3  C   UNL     1       3.720 -12.809 -45.469  1.00  0.00     0.030 A 
ATOM      4  C   UNL     1       2.552 -13.203 -44.799  1.00  0.00     0.043 A 
ATOM      5  C   UNL     1       2.618 -14.271 -43.899  1.00  0.00     0.030 A 
ATOM      6  C   UNL     1       3.830 -14.924 -43.658  1.00  0.00     0.049 A 
ENDROOT
BRANCH   1   7
ATOM      7  O   UNL     1       6.161 -15.165 -44.077  1.00  0.00    -0.457 OA
BRANCH   7   8
ATOM      8  C   UNL     1       7.232 -14.441 -43.598  1.00  0.00     0.131 A 
ATOM      9  C   UNL     1       8.348 -13.603 -41.669  1.00  0.00     0.131 A 
ATOM     10  C   UNL     1       7.304 -14.337 -42.213  1.00  0.00     0.081 A 
ATOM     11  N   UNL     1       9.308 -12.978 -42.411  1.00  0.00    -0.251 NA
ATOM     12  C   UNL     1       9.198 -13.094 -43.749  1.00  0.00     0.116 A 
ATOM     13  C   UNL     1       8.190 -13.801 -44.385  1.00  0.00     0.067 A 
BRANCH   9  14
ATOM     14  C   UNL     1       8.451 -13.444 -40.183  1.00  0.00     0.269 C 
ATOM     15  N   UNL     1       7.294 -13.751 -39.499  1.00  0.00    -0.354 N 
ATOM     16  O   UNL     1       9.494 -13.088 -39.648  1.00  0.00    -0.268 OA
ATOM     17  C   UNL     1       7.241 -13.808 -38.063  1.00  0.00     0.143 C 
ATOM     18  H   UNL     1       6.538 -14.140 -40.057  1.00  0.00     0.163 HD
ENDBRANCH   9  14
ENDBRANCH   7   8
ENDBRANCH   1   7
BRANCH   4  19
ATOM     19  N   UNL     1       1.372 -12.484 -45.091  1.00  0.00    -0.308 N 
ATOM     20  C   UNL     1       0.819 -11.433 -44.369  1.00  0.00     0.323 C 
ATOM     21  O   UNL     1       1.297 -10.958 -43.347  1.00  0.00    -0.248 OA
ATOM     22  N   UNL     1      -0.352 -10.991 -44.973  1.00  0.00    -0.308 N 
ATOM     23  H   UNL     1       0.906 -12.743 -45.944  1.00  0.00     0.171 HD
ATOM     24  H   UNL     1      -0.651 -11.494 -45.794  1.00  0.00     0.171 HD
BRANCH  22  25
ATOM     25  C   UNL     1      -1.187  -9.931 -44.559  1.00  0.00     0.043 A 
ATOM     26  C   UNL     1      -0.809  -8.591 -44.552  1.00  0.00     0.028 A 
ATOM     27  C   UNL     1      -2.480 -10.265 -44.133  1.00  0.00     0.040 A 
ATOM     28  C   UNL     1      -1.704  -7.604 -44.130  1.00  0.00     0.023 A 
ATOM     29  C   UNL     1      -3.397  -9.280 -43.707  1.00  0.00     0.076 A 
ATOM     30  C   UNL     1      -2.991  -7.943 -43.711  1.00  0.00     0.053 A 
ATOM     31  Cl  UNL     1      -4.037  -6.662 -43.226  1.00  0.00    -0.084 Cl
BRANCH  29  32
ATOM     32  C   UNL     1      -4.788  -9.679 -43.292  1.00  0.00     0.417 C 
ATOM     33  F   UNL     1      -5.752  -9.164 -44.112  1.00  0.00    -0.166 F 
ATOM     34  F   UNL     1      -4.995 -11.025 -43.301  1.00  0.00    -0.166 F 
ATOM     35  F   UNL     1      -5.109  -9.241 -42.042  1.00  0.00    -0.166 F 
ENDBRANCH  29  32
ENDBRANCH  22  25
ENDBRANCH   4  19
TORSDOF 6
ENDMDL
MODEL 17
REMARK VINA RESULT:    -8.732      2.340      2.978
REMARK INTER + INTRA:         -12.017
REMARK INTER:                 -11.299
REMARK INTRA:                  -0.718
REMARK UNBOUND:                -0.223
REMARK SMILES CNC(=O)c1cc(Oc2ccc(NC(=O)Nc3ccc(Cl)c(C(F)(F)F)c3)cc2)ccn1
REMARK SMILES IDX 9 1 10 2 11 3 12 4 28 5 29 6 8 7 7 8 5 9 6 10 32 11 31 12
REMARK SMILES IDX 30 13 3 14 2 15 4 16 1 17 13 19 14 20 15 21 16 22 17 25
REMARK SMILES IDX 18 26 27 27 19 28 22 29 20 30 21 31 23 32 24 33 25 34 26 35
REMARK H PARENT 2 18 13 23 16 24
ROOT
ATOM      1  C   UNL     1       1.790 -10.691 -45.049  1.00  0.00     0.127 A 
ATOM      2  C   UNL     1       2.585 -11.828 -44.933  1.00  0.00     0.049 A 
ATOM      3  C   UNL     1       2.166 -12.879 -44.115  1.00  0.00     0.030 A 
ATOM      4  C   UNL     1       0.961 -12.797 -43.400  1.00  0.00     0.043 A 
ATOM      5  C   UNL     1       0.193 -11.633 -43.506  1.00  0.00     0.030 A 
ATOM      6  C   UNL     1       0.609 -10.577 -44.323  1.00  0.00     0.049 A 
ENDROOT
BRANCH   1   7
ATOM      7  O   UNL     1       2.195  -9.638 -45.828  1.00  0.00    -0.457 OA
BRANCH   7   8
ATOM      8  C   UNL     1       2.329  -8.403 -45.229  1.00  0.00     0.131 A 
ATOM      9  C   UNL     1       1.399  -6.229 -44.953  1.00  0.00     0.131 A 
ATOM     10  C   UNL     1       1.312  -7.496 -45.509  1.00  0.00     0.081 A 
ATOM     11  N   UNL     1       2.421  -5.818 -44.147  1.00  0.00    -0.251 NA
ATOM     12  C   UNL     1       3.392  -6.722 -43.907  1.00  0.00     0.116 A 
ATOM     13  C   UNL     1       3.395  -8.009 -44.420  1.00  0.00     0.067 A 
BRANCH   9  14
ATOM     14  C   UNL     1       0.338  -5.212 -45.248  1.00  0.00     0.269 C 
ATOM     15  N   UNL     1      -0.782  -5.314 -44.451  1.00  0.00    -0.354 N 
ATOM     16  O   UNL     1       0.490  -4.362 -46.118  1.00  0.00    -0.268 OA
ATOM     17  C   UNL     1      -1.837  -4.337 -44.478  1.00  0.00     0.143 C 
ATOM     18  H   UNL     1      -0.729  -5.993 -43.696  1.00  0.00     0.163 HD
ENDBRANCH   9  14
ENDBRANCH   7   8
ENDBRANCH   1   7
BRANCH   4  19
ATOM     19  N   UNL     1       0.608 -13.910 -42.607  1.00  0.00    -0.308 N 
ATOM     20  C   UNL     1       0.517 -15.239 -43.003  1.00  0.00     0.323 C 
ATOM     21  O   UNL     1       0.746 -15.649 -44.134  1.00  0.00    -0.248 OA
ATOM     22  N   UNL     1       0.134 -16.040 -41.935  1.00  0.00    -0.308 N 
ATOM     23  H   UNL     1       0.445 -13.715 -41.633  1.00  0.00     0.171 HD
ATOM     24  H   UNL     1      -0.055 -15.568 -41.064  1.00  0.00     0.171 HD
BRANCH  22  25
ATOM     25  C   UNL     1      -0.042 -17.441 -41.929  1.00  0.00     0.043 A 
ATOM     26  C   UNL     1      -1.202 -18.087 -42.350  1.00  0.00     0.028 A 
ATOM     27  C   UNL     1       1.029 -18.218 -41.470  1.00  0.00     0.040 A 
ATOM     28  C   UNL     1      -1.289 -19.482 -42.315  1.00  0.00     0.023 A 
ATOM     29  C   UNL     1       0.959 -19.628 -41.431  1.00  0.00     0.076 A 
ATOM     30  C   UNL     1      -0.216 -20.250 -41.861  1.00  0.00     0.053 A 
ATOM     31  Cl  UNL     1      -0.400 -21.964 -41.869  1.00  0.00    -0.084 Cl
BRANCH  29  32
ATOM     32  C   UNL     1       2.147 -20.426 -40.965  1.00  0.00     0.417 C 
ATOM     33  F   UNL     1       2.672 -21.216 -41.948  1.00  0.00    -0.166 F 
ATOM     34  F   UNL     1       3.185 -19.658 -40.533  1.00  0.00    -0.166 F 
ATOM     35  F   UNL     1       1.840 -21.279 -39.947  1.00  0.00    -0.166 F 
ENDBRANCH  29  32
ENDBRANCH  22  25
ENDBRANCH   4  19
TORSDOF 6
ENDMDL
MODEL 18
REMARK VINA RESULT:    -8.723      6.643     10.776
REMARK INTER + INTRA:         -12.006
REMARK INTER:                 -11.266
REMARK INTRA:                  -0.740
REMARK UNBOUND:                -0.223
REMARK SMILES CNC(=O)c1cc(Oc2ccc(NC(=O)Nc3ccc(Cl)c(C(F)(F)F)c3)cc2)ccn1
REMARK SMILES IDX 9 1 10 2 11 3 12 4 28 5 29 6 8 7 7 8 5 9 6 10 32 11 31 12
REMARK SMILES IDX 30 13 3 14 2 15 4 16 1 17 13 19 14 20 15 21 16 22 17 25
REMARK SMILES IDX 18 26 27 27 19 28 22 29 20 30 21 31 23 32 24 33 25 34 26 35
REMARK H PARENT 2 18 13 23 16 24
ROOT
ATOM      1  C   UNL     1       2.069 -19.764 -40.581  1.00  0.00     0.127 A 
ATOM      2  C   UNL     1       2.625 -20.658 -41.493  1.00  0.00     0.049 A 
ATOM      3  C   UNL     1       3.975 -20.543 -41.832  1.00  0.00     0.030 A 
ATOM      4  C   UNL     1       4.772 -19.532 -41.274  1.00  0.00     0.043 A 
ATOM      5  C   UNL     1       4.186 -18.625 -40.385  1.00  0.00     0.030 A 
ATOM      6  C   UNL     1       2.835 -18.735 -40.044  1.00  0.00     0.049 A 
ENDROOT
BRANCH   1   7
ATOM      7  O   UNL     1       0.740 -19.845 -40.254  1.00  0.00    -0.457 OA
BRANCH   7   8
ATOM      8  C   UNL     1      -0.187 -19.587 -41.241  1.00  0.00     0.131 A 
ATOM      9  C   UNL     1      -1.034 -17.988 -42.789  1.00  0.00     0.131 A 
ATOM     10  C   UNL     1      -0.115 -18.317 -41.804  1.00  0.00     0.081 A 
ATOM     11  N   UNL     1      -2.004 -18.835 -43.240  1.00  0.00    -0.251 NA
ATOM     12  C   UNL     1      -2.048 -20.053 -42.664  1.00  0.00     0.116 A 
ATOM     13  C   UNL     1      -1.177 -20.471 -41.670  1.00  0.00     0.067 A 
BRANCH   9  14
ATOM     14  C   UNL     1      -1.008 -16.623 -43.406  1.00  0.00     0.269 C 
ATOM     15  N   UNL     1       0.071 -15.851 -43.029  1.00  0.00    -0.354 N 
ATOM     16  O   UNL     1      -1.876 -16.257 -44.189  1.00  0.00    -0.268 OA
ATOM     17  C   UNL     1       0.352 -14.576 -43.631  1.00  0.00     0.143 C 
ATOM     18  H   UNL     1       0.773 -16.318 -42.461  1.00  0.00     0.163 HD
ENDBRANCH   9  14
ENDBRANCH   7   8
ENDBRANCH   1   7
BRANCH   4  19
ATOM     19  N   UNL     1       6.129 -19.496 -41.663  1.00  0.00    -0.308 N 
ATOM     20  C   UNL     1       7.244 -19.415 -40.838  1.00  0.00     0.323 C 
ATOM     21  O   UNL     1       7.209 -19.369 -39.616  1.00  0.00    -0.248 OA
ATOM     22  N   UNL     1       8.409 -19.398 -41.596  1.00  0.00    -0.308 N 
ATOM     23  H   UNL     1       6.301 -19.582 -42.651  1.00  0.00     0.171 HD
ATOM     24  H   UNL     1       8.293 -19.408 -42.598  1.00  0.00     0.171 HD
BRANCH  22  25
ATOM     25  C   UNL     1       9.740 -19.347 -41.129  1.00  0.00     0.043 A 
ATOM     26  C   UNL     1      10.653 -18.350 -41.466  1.00  0.00     0.028 A 
ATOM     27  C   UNL     1      10.154 -20.371 -40.266  1.00  0.00     0.040 A 
ATOM     28  C   UNL     1      11.953 -18.376 -40.952  1.00  0.00     0.023 A 
ATOM     29  C   UNL     1      11.462 -20.409 -39.735  1.00  0.00     0.076 A 
ATOM     30  C   UNL     1      12.356 -19.396 -40.090  1.00  0.00     0.053 A 
ATOM     31  Cl  UNL     1      13.970 -19.339 -39.486  1.00  0.00    -0.084 Cl
BRANCH  29  32
ATOM     32  C   UNL     1      11.853 -21.507 -38.783  1.00  0.00     0.417 C 
ATOM     33  F   UNL     1      12.192 -21.038 -37.545  1.00  0.00    -0.166 F 
ATOM     34  F   UNL     1      10.865 -22.416 -38.561  1.00  0.00    -0.166 F 
ATOM     35  F   UNL     1      12.942 -22.209 -39.209  1.00  0.00    -0.166 F 
ENDBRANCH  29  32
ENDBRANCH  22  25
ENDBRANCH   4  19
TORSDOF 6
ENDMDL
MODEL 19
REMARK VINA RESULT:    -8.676      8.369     10.423
REMARK INTER + INTRA:         -11.942
REMARK INTER:                 -11.684
REMARK INTRA:                  -0.258
REMARK UNBOUND:                -0.223
REMARK SMILES CNC(=O)c1cc(Oc2ccc(NC(=O)Nc3ccc(Cl)c(C(F)(F)F)c3)cc2)ccn1
REMARK SMILES IDX 9 1 10 2 11 3 12 4 28 5 29 6 8 7 7 8 5 9 6 10 32 11 31 12
REMARK SMILES IDX 30 13 3 14 2 15 4 16 1 17 13 19 14 20 15 21 16 22 17 25
REMARK SMILES IDX 18 26 27 27 19 28 22 29 20 30 21 31 23 32 24 33 25 34 26 35
REMARK H PARENT 2 18 13 23 16 24
ROOT
ATOM      1  C   UNL     1       6.068 -19.089 -41.380  1.00  0.00     0.127 A 
ATOM      2  C   UNL     1       5.800 -19.969 -42.425  1.00  0.00     0.049 A 
ATOM      3  C   UNL     1       4.526 -20.529 -42.542  1.00  0.00     0.030 A 
ATOM      4  C   UNL     1       3.519 -20.224 -41.613  1.00  0.00     0.043 A 
ATOM      5  C   UNL     1       3.819 -19.362 -40.553  1.00  0.00     0.030 A 
ATOM      6  C   UNL     1       5.093 -18.800 -40.431  1.00  0.00     0.049 A 
ENDROOT
BRANCH   1   7
ATOM      7  O   UNL     1       7.319 -18.547 -41.234  1.00  0.00    -0.457 OA
BRANCH   7   8
ATOM      8  C   UNL     1       7.542 -17.284 -41.741  1.00  0.00     0.131 A 
ATOM      9  C   UNL     1       8.550 -15.999 -43.473  1.00  0.00     0.131 A 
ATOM     10  C   UNL     1       8.275 -17.242 -42.922  1.00  0.00     0.081 A 
ATOM     11  N   UNL     1       8.145 -14.817 -42.927  1.00  0.00    -0.251 NA
ATOM     12  C   UNL     1       7.446 -14.898 -41.777  1.00  0.00     0.116 A 
ATOM     13  C   UNL     1       7.125 -16.092 -41.150  1.00  0.00     0.067 A 
BRANCH   9  14
ATOM     14  C   UNL     1       9.358 -15.905 -44.732  1.00  0.00     0.269 C 
ATOM     15  N   UNL     1      10.281 -14.881 -44.738  1.00  0.00    -0.354 N 
ATOM     16  O   UNL     1       9.202 -16.697 -45.654  1.00  0.00    -0.268 OA
ATOM     17  C   UNL     1      11.251 -14.726 -45.788  1.00  0.00     0.143 C 
ATOM     18  H   UNL     1      10.382 -14.370 -43.865  1.00  0.00     0.163 HD
ENDBRANCH   9  14
ENDBRANCH   7   8
ENDBRANCH   1   7
BRANCH   4  19
ATOM     19  N   UNL     1       2.257 -20.825 -41.813  1.00  0.00    -0.308 N 
ATOM     20  C   UNL     1       1.007 -20.275 -41.557  1.00  0.00     0.323 C 
ATOM     21  O   UNL     1       0.814 -19.150 -41.115  1.00  0.00    -0.248 OA
ATOM     22  N   UNL     1       0.002 -21.179 -41.880  1.00  0.00    -0.308 N 
ATOM     23  H   UNL     1       2.273 -21.741 -42.229  1.00  0.00     0.171 HD
ATOM     24  H   UNL     1       0.302 -22.086 -42.205  1.00  0.00     0.171 HD
BRANCH  22  25
ATOM     25  C   UNL     1      -1.393 -20.987 -41.786  1.00  0.00     0.043 A 
ATOM     26  C   UNL     1      -2.285 -21.937 -41.294  1.00  0.00     0.028 A 
ATOM     27  C   UNL     1      -1.898 -19.752 -42.216  1.00  0.00     0.040 A 
ATOM     28  C   UNL     1      -3.654 -21.659 -41.232  1.00  0.00     0.023 A 
ATOM     29  C   UNL     1      -3.277 -19.454 -42.156  1.00  0.00     0.076 A 
ATOM     30  C   UNL     1      -4.149 -20.425 -41.657  1.00  0.00     0.053 A 
ATOM     31  Cl  UNL     1      -5.847 -20.159 -41.527  1.00  0.00    -0.084 Cl
BRANCH  29  32
ATOM     32  C   UNL     1      -3.772 -18.102 -42.595  1.00  0.00     0.417 C 
ATOM     33  F   UNL     1      -4.701 -17.578 -41.741  1.00  0.00    -0.166 F 
ATOM     34  F   UNL     1      -2.792 -17.162 -42.677  1.00  0.00    -0.166 F 
ATOM     35  F   UNL     1      -4.385 -18.137 -43.812  1.00  0.00    -0.166 F 
ENDBRANCH  29  32
ENDBRANCH  22  25
ENDBRANCH   4  19
TORSDOF 6
ENDMDL
MODEL 20
REMARK VINA RESULT:    -8.590      7.664     11.215
REMARK INTER + INTRA:         -11.826
REMARK INTER:                 -11.002
REMARK INTRA:                  -0.824
REMARK UNBOUND:                -0.223
REMARK SMILES CNC(=O)c1cc(Oc2ccc(NC(=O)Nc3ccc(Cl)c(C(F)(F)F)c3)cc2)ccn1
REMARK SMILES IDX 9 1 10 2 11 3 12 4 28 5 29 6 8 7 7 8 5 9 6 10 32 11 31 12
REMARK SMILES IDX 30 13 3 14 2 15 4 16 1 17 13 19 14 20 15 21 16 22 17 25
REMARK SMILES IDX 18 26 27 27 19 28 22 29 20 30 21 31 23 32 24 33 25 34 26 35
REMARK H PARENT 2 18 13 23 16 24
ROOT
ATOM      1  C   UNL     1       6.050 -11.816 -45.150  1.00  0.00     0.127 A 
ATOM      2  C   UNL     1       5.671 -10.513 -45.463  1.00  0.00     0.049 A 
ATOM      3  C   UNL     1       4.317 -10.209 -45.615  1.00  0.00     0.030 A 
ATOM      4  C   UNL     1       3.336 -11.203 -45.467  1.00  0.00     0.043 A 
ATOM      5  C   UNL     1       3.740 -12.512 -45.184  1.00  0.00     0.030 A 
ATOM      6  C   UNL     1       5.095 -12.820 -45.032  1.00  0.00     0.049 A 
ENDROOT
BRANCH   1   7
ATOM      7  O   UNL     1       7.376 -12.140 -45.020  1.00  0.00    -0.457 OA
BRANCH   7   8
ATOM      8  C   UNL     1       7.888 -12.279 -43.747  1.00  0.00     0.131 A 
ATOM      9  C   UNL     1       9.612 -13.220 -42.402  1.00  0.00     0.131 A 
ATOM     10  C   UNL     1       9.058 -13.026 -43.658  1.00  0.00     0.081 A 
ATOM     11  N   UNL     1       9.079 -12.722 -41.249  1.00  0.00    -0.251 NA
ATOM     12  C   UNL     1       7.940 -12.012 -41.375  1.00  0.00     0.116 A 
ATOM     13  C   UNL     1       7.310 -11.769 -42.585  1.00  0.00     0.067 A 
BRANCH   9  14
ATOM     14  C   UNL     1      10.859 -14.038 -42.256  1.00  0.00     0.269 C 
ATOM     15  N   UNL     1      11.489 -14.328 -43.449  1.00  0.00    -0.354 N 
ATOM     16  O   UNL     1      11.269 -14.390 -41.157  1.00  0.00    -0.268 OA
ATOM     17  C   UNL     1      12.775 -14.968 -43.503  1.00  0.00     0.143 C 
ATOM     18  H   UNL     1      11.102 -13.880 -44.275  1.00  0.00     0.163 HD
ENDBRANCH   9  14
ENDBRANCH   7   8
ENDBRANCH   1   7
BRANCH   4  19
ATOM     19  N   UNL     1       1.991 -10.806 -45.625  1.00  0.00    -0.308 N 
ATOM     20  C   UNL     1       1.241  -9.996 -44.781  1.00  0.00     0.323 C 
ATOM     21  O   UNL     1       1.657  -9.486 -43.748  1.00  0.00    -0.248 OA
ATOM     22  N   UNL     1      -0.048  -9.839 -45.275  1.00  0.00    -0.308 N 
ATOM     23  H   UNL     1       1.543 -11.116 -46.471  1.00  0.00     0.171 HD
ATOM     24  H   UNL     1      -0.269 -10.341 -46.121  1.00  0.00     0.171 HD
BRANCH  22  25
ATOM     25  C   UNL     1      -1.096  -9.073 -44.720  1.00  0.00     0.043 A 
ATOM     26  C   UNL     1      -1.050  -7.692 -44.543  1.00  0.00     0.028 A 
ATOM     27  C   UNL     1      -2.252  -9.761 -44.329  1.00  0.00     0.040 A 
ATOM     28  C   UNL     1      -2.138  -7.012 -43.987  1.00  0.00     0.023 A 
ATOM     29  C   UNL     1      -3.361  -9.088 -43.770  1.00  0.00     0.076 A 
ATOM     30  C   UNL     1      -3.288  -7.703 -43.605  1.00  0.00     0.053 A 
ATOM     31  Cl  UNL     1      -4.590  -6.784 -42.948  1.00  0.00    -0.084 Cl
BRANCH  29  32
ATOM     32  C   UNL     1      -4.597  -9.862 -43.397  1.00  0.00     0.417 C 
ATOM     33  F   UNL     1      -4.503 -11.189 -43.707  1.00  0.00    -0.166 F 
ATOM     34  F   UNL     1      -4.883  -9.827 -42.067  1.00  0.00    -0.166 F 
ATOM     35  F   UNL     1      -5.710  -9.421 -44.049  1.00  0.00    -0.166 F 
ENDBRANCH  29  32
ENDBRANCH  22  25
ENDBRANCH   4  19
TORSDOF 6
ENDMDL
